REMARK  Name = ../refined-set-2016/3zcl/3zcl_pocket.pdb
REMARK  219 active torsions:
REMARK  status: ('A' for Active; 'I' for Inactive)
REMARK    1  A    between atoms: _1  and  _3
REMARK    2  A    between atoms: _3  and  _4
REMARK    3  A    between atoms: _3  and  _6
REMARK    4  A    between atoms: _9  and  _11
REMARK    5  A    between atoms: _11  and  _12
REMARK    6  A    between atoms: _11  and  _14
REMARK    7  A    between atoms: _14  and  _15
REMARK    8  A    between atoms: _18  and  _20
REMARK    9  A    between atoms: _20  and  _21
REMARK   10  A    between atoms: _23  and  _25
REMARK   11  A    between atoms: _25  and  _26
REMARK   12  A    between atoms: _25  and  _28
REMARK   13  A    between atoms: _28  and  _29
REMARK   14  A    between atoms: _29  and  _30
REMARK   15  A    between atoms: _30  and  _31
REMARK   16  A    between atoms: _40  and  _42
REMARK   17  A    between atoms: _42  and  _43
REMARK   18  A    between atoms: _45  and  _47
REMARK   19  A    between atoms: _47  and  _48
REMARK   20  A    between atoms: _47  and  _50
REMARK   21  A    between atoms: _52  and  _54
REMARK   22  A    between atoms: _54  and  _55
REMARK   23  A    between atoms: _54  and  _57
REMARK   24  A    between atoms: _60  and  _62
REMARK   25  A    between atoms: _62  and  _63
REMARK   26  A    between atoms: _62  and  _65
REMARK   27  A    between atoms: _65  and  _66
REMARK   28  A    between atoms: _71  and  _72
REMARK   29  A    between atoms: _74  and  _76
REMARK   30  A    between atoms: _76  and  _77
REMARK   31  A    between atoms: _76  and  _79
REMARK   32  A    between atoms: _79  and  _80
REMARK   33  A    between atoms: _85  and  _87
REMARK   34  A    between atoms: _87  and  _88
REMARK   35  A    between atoms: _90  and  _92
REMARK   36  A    between atoms: _92  and  _93
REMARK   37  A    between atoms: _92  and  _95
REMARK   38  A    between atoms: _95  and  _96
REMARK   39  A    between atoms: _101  and  _103
REMARK   40  A    between atoms: _103  and  _104
REMARK   41  A    between atoms: _103  and  _106
REMARK   42  A    between atoms: _108  and  _110
REMARK   43  A    between atoms: _110  and  _111
REMARK   44  A    between atoms: _114  and  _116
REMARK   45  A    between atoms: _116  and  _117
REMARK   46  A    between atoms: _116  and  _119
REMARK   47  A    between atoms: _122  and  _124
REMARK   48  A    between atoms: _124  and  _125
REMARK   49  A    between atoms: _124  and  _127
REMARK   50  A    between atoms: _127  and  _128
REMARK   51  A    between atoms: _128  and  _129
REMARK   52  A    between atoms: _129  and  _130
REMARK   53  A    between atoms: _130  and  _131
REMARK   54  A    between atoms: _135  and  _137
REMARK   55  A    between atoms: _137  and  _138
REMARK   56  A    between atoms: _137  and  _140
REMARK   57  A    between atoms: _140  and  _141
REMARK   58  A    between atoms: _143  and  _145
REMARK   59  A    between atoms: _145  and  _146
REMARK   60  A    between atoms: _145  and  _148
REMARK   61  A    between atoms: _148  and  _149
REMARK   62  A    between atoms: _149  and  _150
REMARK   63  A    between atoms: _152  and  _154
REMARK   64  A    between atoms: _154  and  _155
REMARK   65  A    between atoms: _154  and  _157
REMARK   66  A    between atoms: _157  and  _158
REMARK   67  A    between atoms: _161  and  _163
REMARK   68  A    between atoms: _163  and  _164
REMARK   69  A    between atoms: _163  and  _166
REMARK   70  A    between atoms: _166  and  _167
REMARK   71  A    between atoms: _169  and  _171
REMARK   72  A    between atoms: _171  and  _172
REMARK   73  A    between atoms: _171  and  _174
REMARK   74  A    between atoms: _177  and  _179
REMARK   75  A    between atoms: _179  and  _180
REMARK   76  A    between atoms: _179  and  _182
REMARK   77  A    between atoms: _185  and  _187
REMARK   78  A    between atoms: _187  and  _188
REMARK   79  A    between atoms: _187  and  _190
REMARK   80  A    between atoms: _190  and  _191
REMARK   81  A    between atoms: _195  and  _196
REMARK   82  A    between atoms: _201  and  _203
REMARK   83  A    between atoms: _203  and  _204
REMARK   84  A    between atoms: _203  and  _206
REMARK   85  A    between atoms: _206  and  _207
REMARK   86  A    between atoms: _212  and  _213
REMARK   87  A    between atoms: _215  and  _217
REMARK   88  A    between atoms: _217  and  _218
REMARK   89  A    between atoms: _217  and  _220
REMARK   90  A    between atoms: _220  and  _221
REMARK   91  A    between atoms: _221  and  _222
REMARK   92  A    between atoms: _224  and  _226
REMARK   93  A    between atoms: _226  and  _227
REMARK   94  A    between atoms: _226  and  _229
REMARK   95  A    between atoms: _229  and  _230
REMARK   96  A    between atoms: _230  and  _231
REMARK   97  A    between atoms: _231  and  _232
REMARK   98  A    between atoms: _232  and  _233
REMARK   99  A    between atoms: _237  and  _239
REMARK  100  A    between atoms: _239  and  _240
REMARK  101  A    between atoms: _239  and  _242
REMARK  102  A    between atoms: _242  and  _243
REMARK  103  A    between atoms: _248  and  _250
REMARK  104  A    between atoms: _250  and  _251
REMARK  105  A    between atoms: _253  and  _255
REMARK  106  A    between atoms: _255  and  _256
REMARK  107  A    between atoms: _255  and  _258
REMARK  108  A    between atoms: _258  and  _259
REMARK  109  A    between atoms: _262  and  _264
REMARK  110  A    between atoms: _264  and  _265
REMARK  111  A    between atoms: _264  and  _267
REMARK  112  A    between atoms: _267  and  _268
REMARK  113  A    between atoms: _271  and  _273
REMARK  114  A    between atoms: _273  and  _274
REMARK  115  A    between atoms: _273  and  _276
REMARK  116  A    between atoms: _276  and  _277
REMARK  117  A    between atoms: _277  and  _278
REMARK  118  A    between atoms: _278  and  _279
REMARK  119  A    between atoms: _288  and  _290
REMARK  120  A    between atoms: _290  and  _291
REMARK  121  A    between atoms: _290  and  _293
REMARK  122  A    between atoms: _293  and  _294
REMARK  123  A    between atoms: _299  and  _301
REMARK  124  A    between atoms: _301  and  _302
REMARK  125  A    between atoms: _301  and  _304
REMARK  126  A    between atoms: _304  and  _305
REMARK  127  A    between atoms: _311  and  _313
REMARK  128  A    between atoms: _313  and  _314
REMARK  129  A    between atoms: _313  and  _316
REMARK  130  A    between atoms: _316  and  _317
REMARK  131  A    between atoms: _322  and  _324
REMARK  132  A    between atoms: _324  and  _325
REMARK  133  A    between atoms: _324  and  _327
REMARK  134  A    between atoms: _327  and  _328
REMARK  135  A    between atoms: _331  and  _333
REMARK  136  A    between atoms: _333  and  _334
REMARK  137  A    between atoms: _337  and  _339
REMARK  138  A    between atoms: _339  and  _340
REMARK  139  A    between atoms: _343  and  _345
REMARK  140  A    between atoms: _345  and  _346
REMARK  141  A    between atoms: _345  and  _348
REMARK  142  A    between atoms: _348  and  _349
REMARK  143  A    between atoms: _349  and  _350
REMARK  144  A    between atoms: _350  and  _351
REMARK  145  A    between atoms: _360  and  _362
REMARK  146  A    between atoms: _362  and  _363
REMARK  147  A    between atoms: _362  and  _365
REMARK  148  A    between atoms: _365  and  _366
REMARK  149  A    between atoms: _371  and  _373
REMARK  150  A    between atoms: _373  and  _374
REMARK  151  A    between atoms: _373  and  _376
REMARK  152  A    between atoms: _378  and  _380
REMARK  153  A    between atoms: _380  and  _381
REMARK  154  A    between atoms: _380  and  _383
REMARK  155  A    between atoms: _383  and  _384
REMARK  156  A    between atoms: _384  and  _385
REMARK  157  A    between atoms: _387  and  _389
REMARK  158  A    between atoms: _389  and  _390
REMARK  159  A    between atoms: _389  and  _392
REMARK  160  A    between atoms: _392  and  _393
REMARK  161  A    between atoms: _396  and  _398
REMARK  162  A    between atoms: _398  and  _399
REMARK  163  A    between atoms: _398  and  _401
REMARK  164  A    between atoms: _401  and  _402
REMARK  165  A    between atoms: _405  and  _407
REMARK  166  A    between atoms: _407  and  _408
REMARK  167  A    between atoms: _407  and  _410
REMARK  168  A    between atoms: _410  and  _411
REMARK  169  A    between atoms: _411  and  _412
REMARK  170  A    between atoms: _412  and  _413
REMARK  171  A    between atoms: _413  and  _414
REMARK  172  A    between atoms: _418  and  _420
REMARK  173  A    between atoms: _420  and  _421
REMARK  174  A    between atoms: _420  and  _423
REMARK  175  A    between atoms: _426  and  _428
REMARK  176  A    between atoms: _428  and  _429
REMARK  177  A    between atoms: _432  and  _434
REMARK  178  A    between atoms: _434  and  _435
REMARK  179  A    between atoms: _434  and  _437
REMARK  180  A    between atoms: _437  and  _438
REMARK  181  A    between atoms: _441  and  _443
REMARK  182  A    between atoms: _443  and  _444
REMARK  183  A    between atoms: _443  and  _446
REMARK  184  A    between atoms: _446  and  _447
REMARK  185  A    between atoms: _453  and  _455
REMARK  186  A    between atoms: _455  and  _456
REMARK  187  A    between atoms: _455  and  _458
REMARK  188  A    between atoms: _458  and  _459
REMARK  189  A    between atoms: _462  and  _464
REMARK  190  A    between atoms: _464  and  _465
REMARK  191  A    between atoms: _468  and  _470
REMARK  192  A    between atoms: _470  and  _471
REMARK  193  A    between atoms: _470  and  _473
REMARK  194  A    between atoms: _473  and  _474
REMARK  195  A    between atoms: _474  and  _475
REMARK  196  A    between atoms: _475  and  _476
REMARK  197  A    between atoms: _485  and  _487
REMARK  198  A    between atoms: _487  and  _488
REMARK  199  A    between atoms: _487  and  _490
REMARK  200  A    between atoms: _490  and  _491
REMARK  201  A    between atoms: _494  and  _496
REMARK  202  A    between atoms: _496  and  _497
REMARK  203  A    between atoms: _496  and  _499
REMARK  204  A    between atoms: _499  and  _500
REMARK  205  A    between atoms: _500  and  _501
REMARK  206  A    between atoms: _503  and  _505
REMARK  207  A    between atoms: _505  and  _506
REMARK  208  A    between atoms: _505  and  _508
REMARK  209  A    between atoms: _508  and  _509
REMARK  210  A    between atoms: _514  and  _515
REMARK  211  A    between atoms: _517  and  _519
REMARK  212  A    between atoms: _519  and  _520
REMARK  213  A    between atoms: _519  and  _522
REMARK  214  A    between atoms: _522  and  _523
REMARK  215  A    between atoms: _526  and  _528
REMARK  216  A    between atoms: _528  and  _529
REMARK  217  A    between atoms: _528  and  _531
REMARK  218  A    between atoms: _531  and  _532
REMARK  219  A    between atoms: _537  and  _538
REMARK                            x       y       z     vdW  Elec       q    Type
REMARK                         _______ _______ _______ _____ _____    ______ ____
ROOT
ATOM      1  C   GLY A   3      17.148  87.721   0.030  0.00  0.00    +0.243 C 
ATOM      2  O   GLY A   3      17.135  88.952  -0.003  0.00  0.00    -0.273 OA
ATOM      3  N   ARG A   4      16.061  86.984  -0.163  0.00  0.00    -0.297 N 
ATOM      4  H   ARG A   4      16.134  85.947  -0.134  0.00  0.00    +0.150 HD
ENDROOT
BRANCH   3   5
ATOM      5  CA  ARG A   4      14.768  87.604  -0.414  0.00  0.00    +0.149 C 
BRANCH   5   6
ATOM      6  C   ARG A   4      13.684  86.998   0.466  0.00  0.00    +0.241 C 
ATOM      7  N   GLY A   5      13.090  87.830   1.314  0.00  0.00    -0.296 N 
ATOM      8  H   GLY A   5      13.402  88.821   1.365  0.00  0.00    +0.150 HD
ATOM      9  O   ARG A   4      13.392  85.806   0.380  0.00  0.00    -0.273 OA
BRANCH   7  10
ATOM     10  CA  GLY A   5      12.013  87.373   2.168  0.00  0.00    +0.163 C 
BRANCH  10  11
ATOM     11  C   GLY A   5      10.725  88.117   1.885  0.00  0.00    +0.229 C 
ATOM     12  O   GLY A   5      10.688  89.019   1.046  0.00  0.00    -0.286 OA
ENDBRANCH  10  11
ENDBRANCH   7  10
ENDBRANCH   5   6
BRANCH   5  13
ATOM     13  CB  ARG A   4      14.387  87.451  -1.890  0.00  0.00    +0.033 C 
BRANCH  13  14
ATOM     14  CG  ARG A   4      15.351  88.138  -2.846  0.00  0.00    +0.045 C 
BRANCH  14  15
ATOM     15  CD  ARG A   4      14.922  87.972  -4.296  0.00  0.00    +0.174 C 
BRANCH  15  16
ATOM     16  NE  ARG A   4      15.719  88.805  -5.193  0.00  0.00    -0.265 N 
ATOM     17  CZ  ARG A   4      15.445  90.076  -5.469  0.00  0.00    +0.342 C 
ATOM     18  NH2 ARG A   4      14.393  90.664  -4.916  0.00  0.00    -0.292 N 
ATOM     19 HH21 ARG A   4      13.781  90.131  -4.266  0.00  0.00    +0.255 HD
ATOM     20 HH22 ARG A   4      14.180  91.659  -5.133  0.00  0.00    +0.255 HD
ATOM     21  NH1 ARG A   4      16.226  90.762  -6.293  0.00  0.00    -0.292 N 
ATOM     22 HH11 ARG A   4      16.010  91.756  -6.507  0.00  0.00    +0.255 HD
ATOM     23 HH12 ARG A   4      17.055  90.305  -6.725  0.00  0.00    +0.255 HD
ATOM     24  HE  ARG A   4      16.553  88.377  -5.644  0.00  0.00    +0.259 HD
ENDBRANCH  15  16
ENDBRANCH  14  15
ENDBRANCH  13  14
ENDBRANCH   5  13
ENDBRANCH   3   5
BRANCH   1  25
ATOM     25  CA  GLY A   3      18.436  86.971   0.293  0.00  0.00    +0.176 C 
BRANCH  25  28
ATOM     26  C   ILE A   2      20.813  87.252  -0.054  0.00  0.00    +0.241 C 
ATOM     27  O   ILE A   2      21.075  86.183   0.501  0.00  0.00    -0.273 OA
ATOM     28  N   GLY A   3      19.580  87.730  -0.173  0.00  0.00    -0.295 N 
ATOM     29  H   GLY A   3      19.433  88.663  -0.607  0.00  0.00    +0.150 HD
BRANCH  26  30
ATOM     30  CA  ILE A   2      21.914  88.111  -0.651  0.00  0.00    +0.148 C 
BRANCH  30  32
ATOM     31  C   VAL A   1      21.498  89.935  -2.201  0.00  0.00    +0.238 C 
ATOM     32  N   ILE A   2      21.419  89.444  -0.969  0.00  0.00    -0.297 N 
ATOM     33  H   ILE A   2      20.995  90.023  -0.216  0.00  0.00    +0.150 HD
ATOM     34  O   VAL A   1      21.981  89.306  -3.142  0.00  0.00    -0.274 OA
BRANCH  31  35
ATOM     35  CA  VAL A   1      20.965  91.348  -2.397  0.00  0.00    +0.145 C 
BRANCH  35  36
ATOM     36  CB  VAL A   1      19.666  91.287  -3.230  0.00  0.00    +0.025 C 
ATOM     37  CG2 VAL A   1      18.669  90.334  -2.581  0.00  0.00    +0.002 C 
ATOM     38  CG1 VAL A   1      19.066  92.681  -3.352  0.00  0.00    +0.002 C 
ENDBRANCH  35  36
BRANCH  35  39
ATOM     39  N   VAL A   1      21.964  92.181  -3.055  0.00  0.00    -0.238 NA
ATOM     40  H   VAL A   1      21.885  92.355  -4.077  0.00  0.00    +0.142 HD
ENDBRANCH  35  39
ENDBRANCH  31  35
ENDBRANCH  30  32
BRANCH  30  41
ATOM     41  CB  ILE A   2      23.106  88.171   0.334  0.00  0.00    +0.027 C 
ATOM     42  CG2 ILE A   2      24.293  88.831  -0.340  0.00  0.00    +0.002 C 
BRANCH  41  43
ATOM     43  CG1 ILE A   2      22.720  88.951   1.593  0.00  0.00    +0.002 C 
ATOM     44  CD1 ILE A   2      23.834  89.044   2.621  0.00  0.00    +0.000 C 
ENDBRANCH  41  43
ENDBRANCH  30  41
ENDBRANCH  26  30
ENDBRANCH  25  28
ENDBRANCH   1  25
TORSDOF 17
REMARK  Name = ../refined-set-2016/3zcl/3zcl_pocket.pdb
REMARK  219 active torsions:
REMARK  status: ('A' for Active; 'I' for Inactive)
REMARK    1  A    between atoms: _1  and  _3
REMARK    2  A    between atoms: _3  and  _4
REMARK    3  A    between atoms: _3  and  _6
REMARK    4  A    between atoms: _9  and  _11
REMARK    5  A    between atoms: _11  and  _12
REMARK    6  A    between atoms: _11  and  _14
REMARK    7  A    between atoms: _14  and  _15
REMARK    8  A    between atoms: _18  and  _20
REMARK    9  A    between atoms: _20  and  _21
REMARK   10  A    between atoms: _23  and  _25
REMARK   11  A    between atoms: _25  and  _26
REMARK   12  A    between atoms: _25  and  _28
REMARK   13  A    between atoms: _28  and  _29
REMARK   14  A    between atoms: _29  and  _30
REMARK   15  A    between atoms: _30  and  _31
REMARK   16  A    between atoms: _40  and  _42
REMARK   17  A    between atoms: _42  and  _43
REMARK   18  A    between atoms: _45  and  _47
REMARK   19  A    between atoms: _47  and  _48
REMARK   20  A    between atoms: _47  and  _50
REMARK   21  A    between atoms: _52  and  _54
REMARK   22  A    between atoms: _54  and  _55
REMARK   23  A    between atoms: _54  and  _57
REMARK   24  A    between atoms: _60  and  _62
REMARK   25  A    between atoms: _62  and  _63
REMARK   26  A    between atoms: _62  and  _65
REMARK   27  A    between atoms: _65  and  _66
REMARK   28  A    between atoms: _71  and  _72
REMARK   29  A    between atoms: _74  and  _76
REMARK   30  A    between atoms: _76  and  _77
REMARK   31  A    between atoms: _76  and  _79
REMARK   32  A    between atoms: _79  and  _80
REMARK   33  A    between atoms: _85  and  _87
REMARK   34  A    between atoms: _87  and  _88
REMARK   35  A    between atoms: _90  and  _92
REMARK   36  A    between atoms: _92  and  _93
REMARK   37  A    between atoms: _92  and  _95
REMARK   38  A    between atoms: _95  and  _96
REMARK   39  A    between atoms: _101  and  _103
REMARK   40  A    between atoms: _103  and  _104
REMARK   41  A    between atoms: _103  and  _106
REMARK   42  A    between atoms: _108  and  _110
REMARK   43  A    between atoms: _110  and  _111
REMARK   44  A    between atoms: _114  and  _116
REMARK   45  A    between atoms: _116  and  _117
REMARK   46  A    between atoms: _116  and  _119
REMARK   47  A    between atoms: _122  and  _124
REMARK   48  A    between atoms: _124  and  _125
REMARK   49  A    between atoms: _124  and  _127
REMARK   50  A    between atoms: _127  and  _128
REMARK   51  A    between atoms: _128  and  _129
REMARK   52  A    between atoms: _129  and  _130
REMARK   53  A    between atoms: _130  and  _131
REMARK   54  A    between atoms: _135  and  _137
REMARK   55  A    between atoms: _137  and  _138
REMARK   56  A    between atoms: _137  and  _140
REMARK   57  A    between atoms: _140  and  _141
REMARK   58  A    between atoms: _143  and  _145
REMARK   59  A    between atoms: _145  and  _146
REMARK   60  A    between atoms: _145  and  _148
REMARK   61  A    between atoms: _148  and  _149
REMARK   62  A    between atoms: _149  and  _150
REMARK   63  A    between atoms: _152  and  _154
REMARK   64  A    between atoms: _154  and  _155
REMARK   65  A    between atoms: _154  and  _157
REMARK   66  A    between atoms: _157  and  _158
REMARK   67  A    between atoms: _161  and  _163
REMARK   68  A    between atoms: _163  and  _164
REMARK   69  A    between atoms: _163  and  _166
REMARK   70  A    between atoms: _166  and  _167
REMARK   71  A    between atoms: _169  and  _171
REMARK   72  A    between atoms: _171  and  _172
REMARK   73  A    between atoms: _171  and  _174
REMARK   74  A    between atoms: _177  and  _179
REMARK   75  A    between atoms: _179  and  _180
REMARK   76  A    between atoms: _179  and  _182
REMARK   77  A    between atoms: _185  and  _187
REMARK   78  A    between atoms: _187  and  _188
REMARK   79  A    between atoms: _187  and  _190
REMARK   80  A    between atoms: _190  and  _191
REMARK   81  A    between atoms: _195  and  _196
REMARK   82  A    between atoms: _201  and  _203
REMARK   83  A    between atoms: _203  and  _204
REMARK   84  A    between atoms: _203  and  _206
REMARK   85  A    between atoms: _206  and  _207
REMARK   86  A    between atoms: _212  and  _213
REMARK   87  A    between atoms: _215  and  _217
REMARK   88  A    between atoms: _217  and  _218
REMARK   89  A    between atoms: _217  and  _220
REMARK   90  A    between atoms: _220  and  _221
REMARK   91  A    between atoms: _221  and  _222
REMARK   92  A    between atoms: _224  and  _226
REMARK   93  A    between atoms: _226  and  _227
REMARK   94  A    between atoms: _226  and  _229
REMARK   95  A    between atoms: _229  and  _230
REMARK   96  A    between atoms: _230  and  _231
REMARK   97  A    between atoms: _231  and  _232
REMARK   98  A    between atoms: _232  and  _233
REMARK   99  A    between atoms: _237  and  _239
REMARK  100  A    between atoms: _239  and  _240
REMARK  101  A    between atoms: _239  and  _242
REMARK  102  A    between atoms: _242  and  _243
REMARK  103  A    between atoms: _248  and  _250
REMARK  104  A    between atoms: _250  and  _251
REMARK  105  A    between atoms: _253  and  _255
REMARK  106  A    between atoms: _255  and  _256
REMARK  107  A    between atoms: _255  and  _258
REMARK  108  A    between atoms: _258  and  _259
REMARK  109  A    between atoms: _262  and  _264
REMARK  110  A    between atoms: _264  and  _265
REMARK  111  A    between atoms: _264  and  _267
REMARK  112  A    between atoms: _267  and  _268
REMARK  113  A    between atoms: _271  and  _273
REMARK  114  A    between atoms: _273  and  _274
REMARK  115  A    between atoms: _273  and  _276
REMARK  116  A    between atoms: _276  and  _277
REMARK  117  A    between atoms: _277  and  _278
REMARK  118  A    between atoms: _278  and  _279
REMARK  119  A    between atoms: _288  and  _290
REMARK  120  A    between atoms: _290  and  _291
REMARK  121  A    between atoms: _290  and  _293
REMARK  122  A    between atoms: _293  and  _294
REMARK  123  A    between atoms: _299  and  _301
REMARK  124  A    between atoms: _301  and  _302
REMARK  125  A    between atoms: _301  and  _304
REMARK  126  A    between atoms: _304  and  _305
REMARK  127  A    between atoms: _311  and  _313
REMARK  128  A    between atoms: _313  and  _314
REMARK  129  A    between atoms: _313  and  _316
REMARK  130  A    between atoms: _316  and  _317
REMARK  131  A    between atoms: _322  and  _324
REMARK  132  A    between atoms: _324  and  _325
REMARK  133  A    between atoms: _324  and  _327
REMARK  134  A    between atoms: _327  and  _328
REMARK  135  A    between atoms: _331  and  _333
REMARK  136  A    between atoms: _333  and  _334
REMARK  137  A    between atoms: _337  and  _339
REMARK  138  A    between atoms: _339  and  _340
REMARK  139  A    between atoms: _343  and  _345
REMARK  140  A    between atoms: _345  and  _346
REMARK  141  A    between atoms: _345  and  _348
REMARK  142  A    between atoms: _348  and  _349
REMARK  143  A    between atoms: _349  and  _350
REMARK  144  A    between atoms: _350  and  _351
REMARK  145  A    between atoms: _360  and  _362
REMARK  146  A    between atoms: _362  and  _363
REMARK  147  A    between atoms: _362  and  _365
REMARK  148  A    between atoms: _365  and  _366
REMARK  149  A    between atoms: _371  and  _373
REMARK  150  A    between atoms: _373  and  _374
REMARK  151  A    between atoms: _373  and  _376
REMARK  152  A    between atoms: _378  and  _380
REMARK  153  A    between atoms: _380  and  _381
REMARK  154  A    between atoms: _380  and  _383
REMARK  155  A    between atoms: _383  and  _384
REMARK  156  A    between atoms: _384  and  _385
REMARK  157  A    between atoms: _387  and  _389
REMARK  158  A    between atoms: _389  and  _390
REMARK  159  A    between atoms: _389  and  _392
REMARK  160  A    between atoms: _392  and  _393
REMARK  161  A    between atoms: _396  and  _398
REMARK  162  A    between atoms: _398  and  _399
REMARK  163  A    between atoms: _398  and  _401
REMARK  164  A    between atoms: _401  and  _402
REMARK  165  A    between atoms: _405  and  _407
REMARK  166  A    between atoms: _407  and  _408
REMARK  167  A    between atoms: _407  and  _410
REMARK  168  A    between atoms: _410  and  _411
REMARK  169  A    between atoms: _411  and  _412
REMARK  170  A    between atoms: _412  and  _413
REMARK  171  A    between atoms: _413  and  _414
REMARK  172  A    between atoms: _418  and  _420
REMARK  173  A    between atoms: _420  and  _421
REMARK  174  A    between atoms: _420  and  _423
REMARK  175  A    between atoms: _426  and  _428
REMARK  176  A    between atoms: _428  and  _429
REMARK  177  A    between atoms: _432  and  _434
REMARK  178  A    between atoms: _434  and  _435
REMARK  179  A    between atoms: _434  and  _437
REMARK  180  A    between atoms: _437  and  _438
REMARK  181  A    between atoms: _441  and  _443
REMARK  182  A    between atoms: _443  and  _444
REMARK  183  A    between atoms: _443  and  _446
REMARK  184  A    between atoms: _446  and  _447
REMARK  185  A    between atoms: _453  and  _455
REMARK  186  A    between atoms: _455  and  _456
REMARK  187  A    between atoms: _455  and  _458
REMARK  188  A    between atoms: _458  and  _459
REMARK  189  A    between atoms: _462  and  _464
REMARK  190  A    between atoms: _464  and  _465
REMARK  191  A    between atoms: _468  and  _470
REMARK  192  A    between atoms: _470  and  _471
REMARK  193  A    between atoms: _470  and  _473
REMARK  194  A    between atoms: _473  and  _474
REMARK  195  A    between atoms: _474  and  _475
REMARK  196  A    between atoms: _475  and  _476
REMARK  197  A    between atoms: _485  and  _487
REMARK  198  A    between atoms: _487  and  _488
REMARK  199  A    between atoms: _487  and  _490
REMARK  200  A    between atoms: _490  and  _491
REMARK  201  A    between atoms: _494  and  _496
REMARK  202  A    between atoms: _496  and  _497
REMARK  203  A    between atoms: _496  and  _499
REMARK  204  A    between atoms: _499  and  _500
REMARK  205  A    between atoms: _500  and  _501
REMARK  206  A    between atoms: _503  and  _505
REMARK  207  A    between atoms: _505  and  _506
REMARK  208  A    between atoms: _505  and  _508
REMARK  209  A    between atoms: _508  and  _509
REMARK  210  A    between atoms: _514  and  _515
REMARK  211  A    between atoms: _517  and  _519
REMARK  212  A    between atoms: _519  and  _520
REMARK  213  A    between atoms: _519  and  _522
REMARK  214  A    between atoms: _522  and  _523
REMARK  215  A    between atoms: _526  and  _528
REMARK  216  A    between atoms: _528  and  _529
REMARK  217  A    between atoms: _528  and  _531
REMARK  218  A    between atoms: _531  and  _532
REMARK  219  A    between atoms: _537  and  _538
REMARK                            x       y       z     vdW  Elec       q    Type
REMARK                         _______ _______ _______ _____ _____    ______ ____
ROOT
ATOM      1  CA  TYR A   3      21.713  92.898   1.909  0.00  0.00    +0.153 C 
ENDROOT
BRANCH   1   3
ATOM      2  C   VAL A   2      19.855  91.333   2.076  0.00  0.00    +0.241 C 
ATOM      3  N   TYR A   3      20.655  92.224   2.655  0.00  0.00    -0.297 N 
ATOM      4  H   TYR A   3      20.524  92.446   3.663  0.00  0.00    +0.150 HD
ATOM      5  O   VAL A   2      19.980  90.986   0.902  0.00  0.00    -0.273 OA
BRANCH   2   6
ATOM      6  CA  VAL A   2      18.749  90.740   2.943  0.00  0.00    +0.148 C 
BRANCH   6   9
ATOM      7  C   CYS A   1      16.520  91.550   2.353  0.00  0.00    +0.239 C 
ATOM      8  O   CYS A   1      16.457  92.300   3.326  0.00  0.00    -0.274 OA
ATOM      9  N   VAL A   2      17.529  90.711   2.143  0.00  0.00    -0.297 N 
ATOM     10  H   VAL A   2      17.446  90.008   1.381  0.00  0.00    +0.150 HD
BRANCH   7  11
ATOM     11  CA  CYS A   1      15.416  91.535   1.304  0.00  0.00    +0.156 C 
BRANCH  11  12
ATOM     12  CB  CYS A   1      15.954  92.153   0.010  0.00  0.00    +0.095 C 
ATOM     13  SG  CYS A   1      14.913  91.886  -1.442  0.00  0.00    -0.080 S 
ENDBRANCH  11  12
BRANCH  11  14
ATOM     14  N   CYS A   1      14.231  92.253   1.764  0.00  0.00    -0.237 NA
ATOM     15  H   CYS A   1      14.144  93.271   1.569  0.00  0.00    +0.142 HD
ENDBRANCH  11  14
ENDBRANCH   7  11
ENDBRANCH   6   9
BRANCH   6  16
ATOM     16  CB  VAL A   2      19.179  89.316   3.369  0.00  0.00    +0.027 C 
ATOM     17  CG2 VAL A   2      20.361  89.395   4.318  0.00  0.00    +0.002 C 
ATOM     18  CG1 VAL A   2      18.018  88.582   4.024  0.00  0.00    +0.002 C 
ENDBRANCH   6  16
ENDBRANCH   2   6
ENDBRANCH   1   3
BRANCH   1  19
ATOM     19  C   TYR A   3      23.062  92.729   2.592  0.00  0.00    +0.241 C 
ATOM     20  O   TYR A   3      23.138  92.572   3.808  0.00  0.00    -0.273 OA
ATOM     21  N   HIS A   4      24.127  92.767   1.801  0.00  0.00    -0.297 N 
ATOM     22  H   HIS A   4      24.001  92.681   0.772  0.00  0.00    +0.150 HD
BRANCH  21  23
ATOM     23  CA  HIS A   4      25.469  92.927   2.346  0.00  0.00    +0.155 C 
BRANCH  23  24
ATOM     24  C   HIS A   4      25.559  94.260   3.085  0.00  0.00    +0.241 C 
ATOM     25  N   GLY A   5      26.121  94.234   4.287  0.00  0.00    -0.296 N 
ATOM     26  H   GLY A   5      26.402  93.325   4.706  0.00  0.00    +0.150 HD
ATOM     27  O   HIS A   4      25.133  95.294   2.571  0.00  0.00    -0.273 OA
BRANCH  25  28
ATOM     28  CA  GLY A   5      26.346  95.467   5.021  0.00  0.00    +0.163 C 
BRANCH  28  29
ATOM     29  C   GLY A   5      27.709  95.509   5.675  0.00  0.00    +0.229 C 
ATOM     30  O   GLY A   5      28.407  94.497   5.754  0.00  0.00    -0.286 OA
ENDBRANCH  28  29
ENDBRANCH  25  28
ENDBRANCH  23  24
BRANCH  23  31
ATOM     31  CB  HIS A   4      26.504  92.914   1.220  0.00  0.00    +0.076 C 
BRANCH  31  32
ATOM     32  CG  HIS A   4      26.946  91.542   0.813  0.00  0.00    +0.082 A 
ATOM     33  CD2 HIS A   4      27.482  90.527   1.533  0.00  0.00    +0.115 A 
ATOM     34  NE2 HIS A   4      27.738  89.500   0.657  0.00  0.00    -0.221 NA
ATOM     35  CE1 HIS A   4      27.371  89.869  -0.557  0.00  0.00    +0.199 A 
ATOM     36  ND1 HIS A   4      26.888  91.097  -0.490  0.00  0.00    -0.227 NA
ENDBRANCH  31  32
ENDBRANCH  23  31
ENDBRANCH  21  23
ENDBRANCH   1  19
BRANCH   1  37
ATOM     37  CB  TYR A   3      21.417  94.394   1.788  0.00  0.00    +0.055 C 
BRANCH  37  38
ATOM     38  CG  TYR A   3      20.085  94.714   1.152  0.00  0.00    -0.020 A 
ATOM     39  CD2 TYR A   3      18.945  94.876   1.927  0.00  0.00    -0.001 A 
ATOM     40  CE2 TYR A   3      17.727  95.183   1.349  0.00  0.00    +0.036 A 
ATOM     41  CZ  TYR A   3      17.641  95.329  -0.017  0.00  0.00    +0.134 A 
ATOM     42  CE1 TYR A   3      18.756  95.173  -0.810  0.00  0.00    +0.036 A 
ATOM     43  CD1 TYR A   3      19.971  94.867  -0.224  0.00  0.00    -0.001 A 
BRANCH  41  44
ATOM     44  OH  TYR A   3      16.431  95.629  -0.595  0.00  0.00    -0.506 OA
ATOM     45  HH  TYR A   3      16.101  96.491  -0.238  0.00  0.00    +0.292 HD
ENDBRANCH  41  44
ENDBRANCH  37  38
ENDBRANCH   1  37
TORSDOF 17
REMARK  Name = ../refined-set-2016/3zcl/3zcl_pocket.pdb
REMARK  219 active torsions:
REMARK  status: ('A' for Active; 'I' for Inactive)
REMARK    1  A    between atoms: _1  and  _3
REMARK    2  A    between atoms: _3  and  _4
REMARK    3  A    between atoms: _3  and  _6
REMARK    4  A    between atoms: _9  and  _11
REMARK    5  A    between atoms: _11  and  _12
REMARK    6  A    between atoms: _11  and  _14
REMARK    7  A    between atoms: _14  and  _15
REMARK    8  A    between atoms: _18  and  _20
REMARK    9  A    between atoms: _20  and  _21
REMARK   10  A    between atoms: _23  and  _25
REMARK   11  A    between atoms: _25  and  _26
REMARK   12  A    between atoms: _25  and  _28
REMARK   13  A    between atoms: _28  and  _29
REMARK   14  A    between atoms: _29  and  _30
REMARK   15  A    between atoms: _30  and  _31
REMARK   16  A    between atoms: _40  and  _42
REMARK   17  A    between atoms: _42  and  _43
REMARK   18  A    between atoms: _45  and  _47
REMARK   19  A    between atoms: _47  and  _48
REMARK   20  A    between atoms: _47  and  _50
REMARK   21  A    between atoms: _52  and  _54
REMARK   22  A    between atoms: _54  and  _55
REMARK   23  A    between atoms: _54  and  _57
REMARK   24  A    between atoms: _60  and  _62
REMARK   25  A    between atoms: _62  and  _63
REMARK   26  A    between atoms: _62  and  _65
REMARK   27  A    between atoms: _65  and  _66
REMARK   28  A    between atoms: _71  and  _72
REMARK   29  A    between atoms: _74  and  _76
REMARK   30  A    between atoms: _76  and  _77
REMARK   31  A    between atoms: _76  and  _79
REMARK   32  A    between atoms: _79  and  _80
REMARK   33  A    between atoms: _85  and  _87
REMARK   34  A    between atoms: _87  and  _88
REMARK   35  A    between atoms: _90  and  _92
REMARK   36  A    between atoms: _92  and  _93
REMARK   37  A    between atoms: _92  and  _95
REMARK   38  A    between atoms: _95  and  _96
REMARK   39  A    between atoms: _101  and  _103
REMARK   40  A    between atoms: _103  and  _104
REMARK   41  A    between atoms: _103  and  _106
REMARK   42  A    between atoms: _108  and  _110
REMARK   43  A    between atoms: _110  and  _111
REMARK   44  A    between atoms: _114  and  _116
REMARK   45  A    between atoms: _116  and  _117
REMARK   46  A    between atoms: _116  and  _119
REMARK   47  A    between atoms: _122  and  _124
REMARK   48  A    between atoms: _124  and  _125
REMARK   49  A    between atoms: _124  and  _127
REMARK   50  A    between atoms: _127  and  _128
REMARK   51  A    between atoms: _128  and  _129
REMARK   52  A    between atoms: _129  and  _130
REMARK   53  A    between atoms: _130  and  _131
REMARK   54  A    between atoms: _135  and  _137
REMARK   55  A    between atoms: _137  and  _138
REMARK   56  A    between atoms: _137  and  _140
REMARK   57  A    between atoms: _140  and  _141
REMARK   58  A    between atoms: _143  and  _145
REMARK   59  A    between atoms: _145  and  _146
REMARK   60  A    between atoms: _145  and  _148
REMARK   61  A    between atoms: _148  and  _149
REMARK   62  A    between atoms: _149  and  _150
REMARK   63  A    between atoms: _152  and  _154
REMARK   64  A    between atoms: _154  and  _155
REMARK   65  A    between atoms: _154  and  _157
REMARK   66  A    between atoms: _157  and  _158
REMARK   67  A    between atoms: _161  and  _163
REMARK   68  A    between atoms: _163  and  _164
REMARK   69  A    between atoms: _163  and  _166
REMARK   70  A    between atoms: _166  and  _167
REMARK   71  A    between atoms: _169  and  _171
REMARK   72  A    between atoms: _171  and  _172
REMARK   73  A    between atoms: _171  and  _174
REMARK   74  A    between atoms: _177  and  _179
REMARK   75  A    between atoms: _179  and  _180
REMARK   76  A    between atoms: _179  and  _182
REMARK   77  A    between atoms: _185  and  _187
REMARK   78  A    between atoms: _187  and  _188
REMARK   79  A    between atoms: _187  and  _190
REMARK   80  A    between atoms: _190  and  _191
REMARK   81  A    between atoms: _195  and  _196
REMARK   82  A    between atoms: _201  and  _203
REMARK   83  A    between atoms: _203  and  _204
REMARK   84  A    between atoms: _203  and  _206
REMARK   85  A    between atoms: _206  and  _207
REMARK   86  A    between atoms: _212  and  _213
REMARK   87  A    between atoms: _215  and  _217
REMARK   88  A    between atoms: _217  and  _218
REMARK   89  A    between atoms: _217  and  _220
REMARK   90  A    between atoms: _220  and  _221
REMARK   91  A    between atoms: _221  and  _222
REMARK   92  A    between atoms: _224  and  _226
REMARK   93  A    between atoms: _226  and  _227
REMARK   94  A    between atoms: _226  and  _229
REMARK   95  A    between atoms: _229  and  _230
REMARK   96  A    between atoms: _230  and  _231
REMARK   97  A    between atoms: _231  and  _232
REMARK   98  A    between atoms: _232  and  _233
REMARK   99  A    between atoms: _237  and  _239
REMARK  100  A    between atoms: _239  and  _240
REMARK  101  A    between atoms: _239  and  _242
REMARK  102  A    between atoms: _242  and  _243
REMARK  103  A    between atoms: _248  and  _250
REMARK  104  A    between atoms: _250  and  _251
REMARK  105  A    between atoms: _253  and  _255
REMARK  106  A    between atoms: _255  and  _256
REMARK  107  A    between atoms: _255  and  _258
REMARK  108  A    between atoms: _258  and  _259
REMARK  109  A    between atoms: _262  and  _264
REMARK  110  A    between atoms: _264  and  _265
REMARK  111  A    between atoms: _264  and  _267
REMARK  112  A    between atoms: _267  and  _268
REMARK  113  A    between atoms: _271  and  _273
REMARK  114  A    between atoms: _273  and  _274
REMARK  115  A    between atoms: _273  and  _276
REMARK  116  A    between atoms: _276  and  _277
REMARK  117  A    between atoms: _277  and  _278
REMARK  118  A    between atoms: _278  and  _279
REMARK  119  A    between atoms: _288  and  _290
REMARK  120  A    between atoms: _290  and  _291
REMARK  121  A    between atoms: _290  and  _293
REMARK  122  A    between atoms: _293  and  _294
REMARK  123  A    between atoms: _299  and  _301
REMARK  124  A    between atoms: _301  and  _302
REMARK  125  A    between atoms: _301  and  _304
REMARK  126  A    between atoms: _304  and  _305
REMARK  127  A    between atoms: _311  and  _313
REMARK  128  A    between atoms: _313  and  _314
REMARK  129  A    between atoms: _313  and  _316
REMARK  130  A    between atoms: _316  and  _317
REMARK  131  A    between atoms: _322  and  _324
REMARK  132  A    between atoms: _324  and  _325
REMARK  133  A    between atoms: _324  and  _327
REMARK  134  A    between atoms: _327  and  _328
REMARK  135  A    between atoms: _331  and  _333
REMARK  136  A    between atoms: _333  and  _334
REMARK  137  A    between atoms: _337  and  _339
REMARK  138  A    between atoms: _339  and  _340
REMARK  139  A    between atoms: _343  and  _345
REMARK  140  A    between atoms: _345  and  _346
REMARK  141  A    between atoms: _345  and  _348
REMARK  142  A    between atoms: _348  and  _349
REMARK  143  A    between atoms: _349  and  _350
REMARK  144  A    between atoms: _350  and  _351
REMARK  145  A    between atoms: _360  and  _362
REMARK  146  A    between atoms: _362  and  _363
REMARK  147  A    between atoms: _362  and  _365
REMARK  148  A    between atoms: _365  and  _366
REMARK  149  A    between atoms: _371  and  _373
REMARK  150  A    between atoms: _373  and  _374
REMARK  151  A    between atoms: _373  and  _376
REMARK  152  A    between atoms: _378  and  _380
REMARK  153  A    between atoms: _380  and  _381
REMARK  154  A    between atoms: _380  and  _383
REMARK  155  A    between atoms: _383  and  _384
REMARK  156  A    between atoms: _384  and  _385
REMARK  157  A    between atoms: _387  and  _389
REMARK  158  A    between atoms: _389  and  _390
REMARK  159  A    between atoms: _389  and  _392
REMARK  160  A    between atoms: _392  and  _393
REMARK  161  A    between atoms: _396  and  _398
REMARK  162  A    between atoms: _398  and  _399
REMARK  163  A    between atoms: _398  and  _401
REMARK  164  A    between atoms: _401  and  _402
REMARK  165  A    between atoms: _405  and  _407
REMARK  166  A    between atoms: _407  and  _408
REMARK  167  A    between atoms: _407  and  _410
REMARK  168  A    between atoms: _410  and  _411
REMARK  169  A    between atoms: _411  and  _412
REMARK  170  A    between atoms: _412  and  _413
REMARK  171  A    between atoms: _413  and  _414
REMARK  172  A    between atoms: _418  and  _420
REMARK  173  A    between atoms: _420  and  _421
REMARK  174  A    between atoms: _420  and  _423
REMARK  175  A    between atoms: _426  and  _428
REMARK  176  A    between atoms: _428  and  _429
REMARK  177  A    between atoms: _432  and  _434
REMARK  178  A    between atoms: _434  and  _435
REMARK  179  A    between atoms: _434  and  _437
REMARK  180  A    between atoms: _437  and  _438
REMARK  181  A    between atoms: _441  and  _443
REMARK  182  A    between atoms: _443  and  _444
REMARK  183  A    between atoms: _443  and  _446
REMARK  184  A    between atoms: _446  and  _447
REMARK  185  A    between atoms: _453  and  _455
REMARK  186  A    between atoms: _455  and  _456
REMARK  187  A    between atoms: _455  and  _458
REMARK  188  A    between atoms: _458  and  _459
REMARK  189  A    between atoms: _462  and  _464
REMARK  190  A    between atoms: _464  and  _465
REMARK  191  A    between atoms: _468  and  _470
REMARK  192  A    between atoms: _470  and  _471
REMARK  193  A    between atoms: _470  and  _473
REMARK  194  A    between atoms: _473  and  _474
REMARK  195  A    between atoms: _474  and  _475
REMARK  196  A    between atoms: _475  and  _476
REMARK  197  A    between atoms: _485  and  _487
REMARK  198  A    between atoms: _487  and  _488
REMARK  199  A    between atoms: _487  and  _490
REMARK  200  A    between atoms: _490  and  _491
REMARK  201  A    between atoms: _494  and  _496
REMARK  202  A    between atoms: _496  and  _497
REMARK  203  A    between atoms: _496  and  _499
REMARK  204  A    between atoms: _499  and  _500
REMARK  205  A    between atoms: _500  and  _501
REMARK  206  A    between atoms: _503  and  _505
REMARK  207  A    between atoms: _505  and  _506
REMARK  208  A    between atoms: _505  and  _508
REMARK  209  A    between atoms: _508  and  _509
REMARK  210  A    between atoms: _514  and  _515
REMARK  211  A    between atoms: _517  and  _519
REMARK  212  A    between atoms: _519  and  _520
REMARK  213  A    between atoms: _519  and  _522
REMARK  214  A    between atoms: _522  and  _523
REMARK  215  A    between atoms: _526  and  _528
REMARK  216  A    between atoms: _528  and  _529
REMARK  217  A    between atoms: _528  and  _531
REMARK  218  A    between atoms: _531  and  _532
REMARK  219  A    between atoms: _537  and  _538
REMARK                            x       y       z     vdW  Elec       q    Type
REMARK                         _______ _______ _______ _____ _____    ______ ____
ROOT
ATOM      1  CA  VAL A   4      21.199  93.464   6.961  0.00  0.00    +0.149 C 
ENDROOT
BRANCH   1   2
ATOM      2  C   VAL A   4      19.844  93.036   6.411  0.00  0.00    +0.241 C 
ATOM      3  N   LYS A   5      18.941  92.668   7.313  0.00  0.00    -0.297 N 
ATOM      4  H   LYS A   5      19.192  92.700   8.322  0.00  0.00    +0.150 HD
ATOM      5  O   VAL A   4      19.628  93.023   5.198  0.00  0.00    -0.273 OA
BRANCH   3   6
ATOM      6  CA  LYS A   5      17.606  92.220   6.929  0.00  0.00    +0.149 C 
BRANCH   6   7
ATOM      7  C   LYS A   5      16.623  93.382   6.973  0.00  0.00    +0.241 C 
ATOM      8  O   LYS A   5      16.399  93.976   8.027  0.00  0.00    -0.273 OA
ATOM      9  N   SER A   6      16.038  93.696   5.822  0.00  0.00    -0.296 N 
ATOM     10  H   SER A   6      16.305  93.176   4.962  0.00  0.00    +0.150 HD
BRANCH   9  11
ATOM     11  CA  SER A   6      15.034  94.747   5.728  0.00  0.00    +0.166 C 
BRANCH  11  12
ATOM     12  CB  SER A   6      13.668  94.238   6.167  0.00  0.00    +0.229 C 
ATOM     13  OG  SER A   6      13.313  93.082   5.920  0.00  0.00    -0.286 OA
ENDBRANCH  11  12
BRANCH  11  14
ATOM     14  C   SER A   6      14.943  95.261   4.290  0.00  0.00    +0.165 C 
BRANCH  14  15
ATOM     15  O   SER A   6      13.893  96.204   4.156  0.00  0.00    -0.380 OA
ATOM     16  H   SER A   6      14.061  96.971   4.759  0.00  0.00    +0.211 HD
ENDBRANCH  14  15
ENDBRANCH  11  14
ENDBRANCH   9  11
ENDBRANCH   6   7
BRANCH   6  17
ATOM     17  CB  LYS A   5      17.133  91.109   7.872  0.00  0.00    +0.029 C 
BRANCH  17  18
ATOM     18  CG  LYS A   5      15.716  90.608   7.595  0.00  0.00    +0.000 C 
BRANCH  18  19
ATOM     19  CD  LYS A   5      15.576  90.106   6.165  0.00  0.00    -0.024 C 
BRANCH  19  20
ATOM     20  CE  LYS A   5      14.376  89.178   6.010  0.00  0.00    -0.086 C 
BRANCH  20  21
ATOM     21  NZ  LYS A   5      13.113  89.800   6.499  0.00  0.00    +0.380 N 
ATOM     22  HZ1 LYS A   5      13.211  90.035   7.507  0.00  0.00    -0.089 HD
ATOM     23  HZ2 LYS A   5      12.327  89.131   6.373  0.00  0.00    -0.089 HD
ATOM     24  HZ3 LYS A   5      12.923  90.667   5.957  0.00  0.00    -0.089 HD
ENDBRANCH  20  21
ENDBRANCH  19  20
ENDBRANCH  18  19
ENDBRANCH  17  18
ENDBRANCH   6  17
ENDBRANCH   3   6
ENDBRANCH   1   2
BRANCH   1  27
ATOM     25  C   ALA A   3      22.782  91.681   7.375  0.00  0.00    +0.241 C 
ATOM     26  O   ALA A   3      22.446  91.604   8.555  0.00  0.00    -0.273 OA
ATOM     27  N   VAL A   4      22.225  92.532   6.523  0.00  0.00    -0.297 N 
ATOM     28  H   VAL A   4      22.527  92.532   5.528  0.00  0.00    +0.150 HD
BRANCH  25  29
ATOM     29  CA  ALA A   3      23.884  90.790   6.820  0.00  0.00    +0.149 C 
ATOM     30  CB  ALA A   3      23.421  89.338   6.798  0.00  0.00    +0.031 C 
BRANCH  29  32
ATOM     31  C   CYS A   2      26.161  91.541   7.253  0.00  0.00    +0.242 C 
ATOM     32  N   ALA A   3      25.056  90.933   7.674  0.00  0.00    -0.297 N 
ATOM     33  H   ALA A   3      25.027  90.549   8.640  0.00  0.00    +0.150 HD
ATOM     34  O   CYS A   2      26.331  91.892   6.085  0.00  0.00    -0.273 OA
BRANCH  31  35
ATOM     35  CA  CYS A   2      27.242  91.770   8.303  0.00  0.00    +0.160 C 
BRANCH  35  38
ATOM     36  C   HIS A   1      29.659  91.795   8.123  0.00  0.00    +0.239 C 
ATOM     37  O   HIS A   1      29.763  90.934   8.992  0.00  0.00    -0.274 OA
ATOM     38  N   CYS A   2      28.483  92.257   7.715  0.00  0.00    -0.296 N 
ATOM     39  H   CYS A   2      28.447  92.977   6.965  0.00  0.00    +0.150 HD
BRANCH  36  40
ATOM     40  CA  HIS A   1      30.903  92.393   7.469  0.00  0.00    +0.151 C 
BRANCH  40  41
ATOM     41  N   HIS A   1      31.808  92.824   8.525  0.00  0.00    -0.238 NA
ATOM     42  H   HIS A   1      32.685  92.290   8.690  0.00  0.00    +0.142 HD
ENDBRANCH  40  41
BRANCH  40  43
ATOM     43  CB  HIS A   1      31.601  91.344   6.597  0.00  0.00    +0.074 C 
BRANCH  43  44
ATOM     44  CG  HIS A   1      30.860  91.000   5.343  0.00  0.00    +0.082 A 
ATOM     45  CD2 HIS A   1      29.602  91.293   4.937  0.00  0.00    +0.115 A 
ATOM     46  NE2 HIS A   1      29.436  90.734   3.694  0.00  0.00    -0.221 NA
ATOM     47  CE1 HIS A   1      30.551  90.117   3.348  0.00  0.00    +0.199 A 
ATOM     48  ND1 HIS A   1      31.428  90.262   4.326  0.00  0.00    -0.227 NA
ENDBRANCH  43  44
ENDBRANCH  40  43
ENDBRANCH  36  40
ENDBRANCH  35  38
BRANCH  35  49
ATOM     49  CB  CYS A   2      26.741  92.754   9.368  0.00  0.00    +0.098 C 
ATOM     50  SG  CYS A   2      26.403  94.433   8.776  0.00  0.00    -0.080 S 
ENDBRANCH  35  49
ENDBRANCH  31  35
ENDBRANCH  29  32
ENDBRANCH  25  29
ENDBRANCH   1  27
BRANCH   1  51
ATOM     51  CB  VAL A   4      21.524  94.901   6.486  0.00  0.00    +0.027 C 
ATOM     52  CG2 VAL A   4      22.901  95.314   6.995  0.00  0.00    +0.002 C 
ATOM     53  CG1 VAL A   4      20.461  95.871   6.986  0.00  0.00    +0.002 C 
ENDBRANCH   1  51
TORSDOF 23
REMARK  Name = ../refined-set-2016/3zcl/3zcl_pocket.pdb
REMARK  219 active torsions:
REMARK  status: ('A' for Active; 'I' for Inactive)
REMARK    1  A    between atoms: _1  and  _3
REMARK    2  A    between atoms: _3  and  _4
REMARK    3  A    between atoms: _3  and  _6
REMARK    4  A    between atoms: _9  and  _11
REMARK    5  A    between atoms: _11  and  _12
REMARK    6  A    between atoms: _11  and  _14
REMARK    7  A    between atoms: _14  and  _15
REMARK    8  A    between atoms: _18  and  _20
REMARK    9  A    between atoms: _20  and  _21
REMARK   10  A    between atoms: _23  and  _25
REMARK   11  A    between atoms: _25  and  _26
REMARK   12  A    between atoms: _25  and  _28
REMARK   13  A    between atoms: _28  and  _29
REMARK   14  A    between atoms: _29  and  _30
REMARK   15  A    between atoms: _30  and  _31
REMARK   16  A    between atoms: _40  and  _42
REMARK   17  A    between atoms: _42  and  _43
REMARK   18  A    between atoms: _45  and  _47
REMARK   19  A    between atoms: _47  and  _48
REMARK   20  A    between atoms: _47  and  _50
REMARK   21  A    between atoms: _52  and  _54
REMARK   22  A    between atoms: _54  and  _55
REMARK   23  A    between atoms: _54  and  _57
REMARK   24  A    between atoms: _60  and  _62
REMARK   25  A    between atoms: _62  and  _63
REMARK   26  A    between atoms: _62  and  _65
REMARK   27  A    between atoms: _65  and  _66
REMARK   28  A    between atoms: _71  and  _72
REMARK   29  A    between atoms: _74  and  _76
REMARK   30  A    between atoms: _76  and  _77
REMARK   31  A    between atoms: _76  and  _79
REMARK   32  A    between atoms: _79  and  _80
REMARK   33  A    between atoms: _85  and  _87
REMARK   34  A    between atoms: _87  and  _88
REMARK   35  A    between atoms: _90  and  _92
REMARK   36  A    between atoms: _92  and  _93
REMARK   37  A    between atoms: _92  and  _95
REMARK   38  A    between atoms: _95  and  _96
REMARK   39  A    between atoms: _101  and  _103
REMARK   40  A    between atoms: _103  and  _104
REMARK   41  A    between atoms: _103  and  _106
REMARK   42  A    between atoms: _108  and  _110
REMARK   43  A    between atoms: _110  and  _111
REMARK   44  A    between atoms: _114  and  _116
REMARK   45  A    between atoms: _116  and  _117
REMARK   46  A    between atoms: _116  and  _119
REMARK   47  A    between atoms: _122  and  _124
REMARK   48  A    between atoms: _124  and  _125
REMARK   49  A    between atoms: _124  and  _127
REMARK   50  A    between atoms: _127  and  _128
REMARK   51  A    between atoms: _128  and  _129
REMARK   52  A    between atoms: _129  and  _130
REMARK   53  A    between atoms: _130  and  _131
REMARK   54  A    between atoms: _135  and  _137
REMARK   55  A    between atoms: _137  and  _138
REMARK   56  A    between atoms: _137  and  _140
REMARK   57  A    between atoms: _140  and  _141
REMARK   58  A    between atoms: _143  and  _145
REMARK   59  A    between atoms: _145  and  _146
REMARK   60  A    between atoms: _145  and  _148
REMARK   61  A    between atoms: _148  and  _149
REMARK   62  A    between atoms: _149  and  _150
REMARK   63  A    between atoms: _152  and  _154
REMARK   64  A    between atoms: _154  and  _155
REMARK   65  A    between atoms: _154  and  _157
REMARK   66  A    between atoms: _157  and  _158
REMARK   67  A    between atoms: _161  and  _163
REMARK   68  A    between atoms: _163  and  _164
REMARK   69  A    between atoms: _163  and  _166
REMARK   70  A    between atoms: _166  and  _167
REMARK   71  A    between atoms: _169  and  _171
REMARK   72  A    between atoms: _171  and  _172
REMARK   73  A    between atoms: _171  and  _174
REMARK   74  A    between atoms: _177  and  _179
REMARK   75  A    between atoms: _179  and  _180
REMARK   76  A    between atoms: _179  and  _182
REMARK   77  A    between atoms: _185  and  _187
REMARK   78  A    between atoms: _187  and  _188
REMARK   79  A    between atoms: _187  and  _190
REMARK   80  A    between atoms: _190  and  _191
REMARK   81  A    between atoms: _195  and  _196
REMARK   82  A    between atoms: _201  and  _203
REMARK   83  A    between atoms: _203  and  _204
REMARK   84  A    between atoms: _203  and  _206
REMARK   85  A    between atoms: _206  and  _207
REMARK   86  A    between atoms: _212  and  _213
REMARK   87  A    between atoms: _215  and  _217
REMARK   88  A    between atoms: _217  and  _218
REMARK   89  A    between atoms: _217  and  _220
REMARK   90  A    between atoms: _220  and  _221
REMARK   91  A    between atoms: _221  and  _222
REMARK   92  A    between atoms: _224  and  _226
REMARK   93  A    between atoms: _226  and  _227
REMARK   94  A    between atoms: _226  and  _229
REMARK   95  A    between atoms: _229  and  _230
REMARK   96  A    between atoms: _230  and  _231
REMARK   97  A    between atoms: _231  and  _232
REMARK   98  A    between atoms: _232  and  _233
REMARK   99  A    between atoms: _237  and  _239
REMARK  100  A    between atoms: _239  and  _240
REMARK  101  A    between atoms: _239  and  _242
REMARK  102  A    between atoms: _242  and  _243
REMARK  103  A    between atoms: _248  and  _250
REMARK  104  A    between atoms: _250  and  _251
REMARK  105  A    between atoms: _253  and  _255
REMARK  106  A    between atoms: _255  and  _256
REMARK  107  A    between atoms: _255  and  _258
REMARK  108  A    between atoms: _258  and  _259
REMARK  109  A    between atoms: _262  and  _264
REMARK  110  A    between atoms: _264  and  _265
REMARK  111  A    between atoms: _264  and  _267
REMARK  112  A    between atoms: _267  and  _268
REMARK  113  A    between atoms: _271  and  _273
REMARK  114  A    between atoms: _273  and  _274
REMARK  115  A    between atoms: _273  and  _276
REMARK  116  A    between atoms: _276  and  _277
REMARK  117  A    between atoms: _277  and  _278
REMARK  118  A    between atoms: _278  and  _279
REMARK  119  A    between atoms: _288  and  _290
REMARK  120  A    between atoms: _290  and  _291
REMARK  121  A    between atoms: _290  and  _293
REMARK  122  A    between atoms: _293  and  _294
REMARK  123  A    between atoms: _299  and  _301
REMARK  124  A    between atoms: _301  and  _302
REMARK  125  A    between atoms: _301  and  _304
REMARK  126  A    between atoms: _304  and  _305
REMARK  127  A    between atoms: _311  and  _313
REMARK  128  A    between atoms: _313  and  _314
REMARK  129  A    between atoms: _313  and  _316
REMARK  130  A    between atoms: _316  and  _317
REMARK  131  A    between atoms: _322  and  _324
REMARK  132  A    between atoms: _324  and  _325
REMARK  133  A    between atoms: _324  and  _327
REMARK  134  A    between atoms: _327  and  _328
REMARK  135  A    between atoms: _331  and  _333
REMARK  136  A    between atoms: _333  and  _334
REMARK  137  A    between atoms: _337  and  _339
REMARK  138  A    between atoms: _339  and  _340
REMARK  139  A    between atoms: _343  and  _345
REMARK  140  A    between atoms: _345  and  _346
REMARK  141  A    between atoms: _345  and  _348
REMARK  142  A    between atoms: _348  and  _349
REMARK  143  A    between atoms: _349  and  _350
REMARK  144  A    between atoms: _350  and  _351
REMARK  145  A    between atoms: _360  and  _362
REMARK  146  A    between atoms: _362  and  _363
REMARK  147  A    between atoms: _362  and  _365
REMARK  148  A    between atoms: _365  and  _366
REMARK  149  A    between atoms: _371  and  _373
REMARK  150  A    between atoms: _373  and  _374
REMARK  151  A    between atoms: _373  and  _376
REMARK  152  A    between atoms: _378  and  _380
REMARK  153  A    between atoms: _380  and  _381
REMARK  154  A    between atoms: _380  and  _383
REMARK  155  A    between atoms: _383  and  _384
REMARK  156  A    between atoms: _384  and  _385
REMARK  157  A    between atoms: _387  and  _389
REMARK  158  A    between atoms: _389  and  _390
REMARK  159  A    between atoms: _389  and  _392
REMARK  160  A    between atoms: _392  and  _393
REMARK  161  A    between atoms: _396  and  _398
REMARK  162  A    between atoms: _398  and  _399
REMARK  163  A    between atoms: _398  and  _401
REMARK  164  A    between atoms: _401  and  _402
REMARK  165  A    between atoms: _405  and  _407
REMARK  166  A    between atoms: _407  and  _408
REMARK  167  A    between atoms: _407  and  _410
REMARK  168  A    between atoms: _410  and  _411
REMARK  169  A    between atoms: _411  and  _412
REMARK  170  A    between atoms: _412  and  _413
REMARK  171  A    between atoms: _413  and  _414
REMARK  172  A    between atoms: _418  and  _420
REMARK  173  A    between atoms: _420  and  _421
REMARK  174  A    between atoms: _420  and  _423
REMARK  175  A    between atoms: _426  and  _428
REMARK  176  A    between atoms: _428  and  _429
REMARK  177  A    between atoms: _432  and  _434
REMARK  178  A    between atoms: _434  and  _435
REMARK  179  A    between atoms: _434  and  _437
REMARK  180  A    between atoms: _437  and  _438
REMARK  181  A    between atoms: _441  and  _443
REMARK  182  A    between atoms: _443  and  _444
REMARK  183  A    between atoms: _443  and  _446
REMARK  184  A    between atoms: _446  and  _447
REMARK  185  A    between atoms: _453  and  _455
REMARK  186  A    between atoms: _455  and  _456
REMARK  187  A    between atoms: _455  and  _458
REMARK  188  A    between atoms: _458  and  _459
REMARK  189  A    between atoms: _462  and  _464
REMARK  190  A    between atoms: _464  and  _465
REMARK  191  A    between atoms: _468  and  _470
REMARK  192  A    between atoms: _470  and  _471
REMARK  193  A    between atoms: _470  and  _473
REMARK  194  A    between atoms: _473  and  _474
REMARK  195  A    between atoms: _474  and  _475
REMARK  196  A    between atoms: _475  and  _476
REMARK  197  A    between atoms: _485  and  _487
REMARK  198  A    between atoms: _487  and  _488
REMARK  199  A    between atoms: _487  and  _490
REMARK  200  A    between atoms: _490  and  _491
REMARK  201  A    between atoms: _494  and  _496
REMARK  202  A    between atoms: _496  and  _497
REMARK  203  A    between atoms: _496  and  _499
REMARK  204  A    between atoms: _499  and  _500
REMARK  205  A    between atoms: _500  and  _501
REMARK  206  A    between atoms: _503  and  _505
REMARK  207  A    between atoms: _505  and  _506
REMARK  208  A    between atoms: _505  and  _508
REMARK  209  A    between atoms: _508  and  _509
REMARK  210  A    between atoms: _514  and  _515
REMARK  211  A    between atoms: _517  and  _519
REMARK  212  A    between atoms: _519  and  _520
REMARK  213  A    between atoms: _519  and  _522
REMARK  214  A    between atoms: _522  and  _523
REMARK  215  A    between atoms: _526  and  _528
REMARK  216  A    between atoms: _528  and  _529
REMARK  217  A    between atoms: _528  and  _531
REMARK  218  A    between atoms: _531  and  _532
REMARK  219  A    between atoms: _537  and  _538
REMARK                            x       y       z     vdW  Elec       q    Type
REMARK                         _______ _______ _______ _____ _____    ______ ____
ROOT
ATOM      1  CA  MET A   1      16.777  86.775  20.304  0.00  0.00    +0.134 C 
ENDROOT
BRANCH   1   2
ATOM      2  N   MET A   1      15.576  87.216  21.006  0.00  0.00    -0.239 NA
ATOM      3  H   MET A   1      14.801  87.628  20.448  0.00  0.00    +0.142 HD
ENDBRANCH   1   2
BRANCH   1   4
ATOM      4  C   MET A   1      18.047  87.364  20.927  0.00  0.00    +0.224 C 
ATOM      5  O   MET A   1      19.103  86.724  20.937  0.00  0.00    -0.287 OA
ENDBRANCH   1   4
BRANCH   1   6
ATOM      6  CB  MET A   1      16.662  87.203  18.841  0.00  0.00    +0.037 C 
BRANCH   6   7
ATOM      7  CG  MET A   1      17.770  86.759  17.924  0.00  0.00    +0.059 C 
BRANCH   7   8
ATOM      8  SD  MET A   1      17.454  87.416  16.273  0.00  0.00    -0.139 S 
ATOM      9  CE  MET A   1      18.415  86.271  15.287  0.00  0.00    +0.069 C 
ENDBRANCH   7   8
ENDBRANCH   6   7
ENDBRANCH   1   6
TORSDOF 5
REMARK  Name = ../refined-set-2016/3zcl/3zcl_pocket.pdb
REMARK  219 active torsions:
REMARK  status: ('A' for Active; 'I' for Inactive)
REMARK    1  A    between atoms: _1  and  _3
REMARK    2  A    between atoms: _3  and  _4
REMARK    3  A    between atoms: _3  and  _6
REMARK    4  A    between atoms: _9  and  _11
REMARK    5  A    between atoms: _11  and  _12
REMARK    6  A    between atoms: _11  and  _14
REMARK    7  A    between atoms: _14  and  _15
REMARK    8  A    between atoms: _18  and  _20
REMARK    9  A    between atoms: _20  and  _21
REMARK   10  A    between atoms: _23  and  _25
REMARK   11  A    between atoms: _25  and  _26
REMARK   12  A    between atoms: _25  and  _28
REMARK   13  A    between atoms: _28  and  _29
REMARK   14  A    between atoms: _29  and  _30
REMARK   15  A    between atoms: _30  and  _31
REMARK   16  A    between atoms: _40  and  _42
REMARK   17  A    between atoms: _42  and  _43
REMARK   18  A    between atoms: _45  and  _47
REMARK   19  A    between atoms: _47  and  _48
REMARK   20  A    between atoms: _47  and  _50
REMARK   21  A    between atoms: _52  and  _54
REMARK   22  A    between atoms: _54  and  _55
REMARK   23  A    between atoms: _54  and  _57
REMARK   24  A    between atoms: _60  and  _62
REMARK   25  A    between atoms: _62  and  _63
REMARK   26  A    between atoms: _62  and  _65
REMARK   27  A    between atoms: _65  and  _66
REMARK   28  A    between atoms: _71  and  _72
REMARK   29  A    between atoms: _74  and  _76
REMARK   30  A    between atoms: _76  and  _77
REMARK   31  A    between atoms: _76  and  _79
REMARK   32  A    between atoms: _79  and  _80
REMARK   33  A    between atoms: _85  and  _87
REMARK   34  A    between atoms: _87  and  _88
REMARK   35  A    between atoms: _90  and  _92
REMARK   36  A    between atoms: _92  and  _93
REMARK   37  A    between atoms: _92  and  _95
REMARK   38  A    between atoms: _95  and  _96
REMARK   39  A    between atoms: _101  and  _103
REMARK   40  A    between atoms: _103  and  _104
REMARK   41  A    between atoms: _103  and  _106
REMARK   42  A    between atoms: _108  and  _110
REMARK   43  A    between atoms: _110  and  _111
REMARK   44  A    between atoms: _114  and  _116
REMARK   45  A    between atoms: _116  and  _117
REMARK   46  A    between atoms: _116  and  _119
REMARK   47  A    between atoms: _122  and  _124
REMARK   48  A    between atoms: _124  and  _125
REMARK   49  A    between atoms: _124  and  _127
REMARK   50  A    between atoms: _127  and  _128
REMARK   51  A    between atoms: _128  and  _129
REMARK   52  A    between atoms: _129  and  _130
REMARK   53  A    between atoms: _130  and  _131
REMARK   54  A    between atoms: _135  and  _137
REMARK   55  A    between atoms: _137  and  _138
REMARK   56  A    between atoms: _137  and  _140
REMARK   57  A    between atoms: _140  and  _141
REMARK   58  A    between atoms: _143  and  _145
REMARK   59  A    between atoms: _145  and  _146
REMARK   60  A    between atoms: _145  and  _148
REMARK   61  A    between atoms: _148  and  _149
REMARK   62  A    between atoms: _149  and  _150
REMARK   63  A    between atoms: _152  and  _154
REMARK   64  A    between atoms: _154  and  _155
REMARK   65  A    between atoms: _154  and  _157
REMARK   66  A    between atoms: _157  and  _158
REMARK   67  A    between atoms: _161  and  _163
REMARK   68  A    between atoms: _163  and  _164
REMARK   69  A    between atoms: _163  and  _166
REMARK   70  A    between atoms: _166  and  _167
REMARK   71  A    between atoms: _169  and  _171
REMARK   72  A    between atoms: _171  and  _172
REMARK   73  A    between atoms: _171  and  _174
REMARK   74  A    between atoms: _177  and  _179
REMARK   75  A    between atoms: _179  and  _180
REMARK   76  A    between atoms: _179  and  _182
REMARK   77  A    between atoms: _185  and  _187
REMARK   78  A    between atoms: _187  and  _188
REMARK   79  A    between atoms: _187  and  _190
REMARK   80  A    between atoms: _190  and  _191
REMARK   81  A    between atoms: _195  and  _196
REMARK   82  A    between atoms: _201  and  _203
REMARK   83  A    between atoms: _203  and  _204
REMARK   84  A    between atoms: _203  and  _206
REMARK   85  A    between atoms: _206  and  _207
REMARK   86  A    between atoms: _212  and  _213
REMARK   87  A    between atoms: _215  and  _217
REMARK   88  A    between atoms: _217  and  _218
REMARK   89  A    between atoms: _217  and  _220
REMARK   90  A    between atoms: _220  and  _221
REMARK   91  A    between atoms: _221  and  _222
REMARK   92  A    between atoms: _224  and  _226
REMARK   93  A    between atoms: _226  and  _227
REMARK   94  A    between atoms: _226  and  _229
REMARK   95  A    between atoms: _229  and  _230
REMARK   96  A    between atoms: _230  and  _231
REMARK   97  A    between atoms: _231  and  _232
REMARK   98  A    between atoms: _232  and  _233
REMARK   99  A    between atoms: _237  and  _239
REMARK  100  A    between atoms: _239  and  _240
REMARK  101  A    between atoms: _239  and  _242
REMARK  102  A    between atoms: _242  and  _243
REMARK  103  A    between atoms: _248  and  _250
REMARK  104  A    between atoms: _250  and  _251
REMARK  105  A    between atoms: _253  and  _255
REMARK  106  A    between atoms: _255  and  _256
REMARK  107  A    between atoms: _255  and  _258
REMARK  108  A    between atoms: _258  and  _259
REMARK  109  A    between atoms: _262  and  _264
REMARK  110  A    between atoms: _264  and  _265
REMARK  111  A    between atoms: _264  and  _267
REMARK  112  A    between atoms: _267  and  _268
REMARK  113  A    between atoms: _271  and  _273
REMARK  114  A    between atoms: _273  and  _274
REMARK  115  A    between atoms: _273  and  _276
REMARK  116  A    between atoms: _276  and  _277
REMARK  117  A    between atoms: _277  and  _278
REMARK  118  A    between atoms: _278  and  _279
REMARK  119  A    between atoms: _288  and  _290
REMARK  120  A    between atoms: _290  and  _291
REMARK  121  A    between atoms: _290  and  _293
REMARK  122  A    between atoms: _293  and  _294
REMARK  123  A    between atoms: _299  and  _301
REMARK  124  A    between atoms: _301  and  _302
REMARK  125  A    between atoms: _301  and  _304
REMARK  126  A    between atoms: _304  and  _305
REMARK  127  A    between atoms: _311  and  _313
REMARK  128  A    between atoms: _313  and  _314
REMARK  129  A    between atoms: _313  and  _316
REMARK  130  A    between atoms: _316  and  _317
REMARK  131  A    between atoms: _322  and  _324
REMARK  132  A    between atoms: _324  and  _325
REMARK  133  A    between atoms: _324  and  _327
REMARK  134  A    between atoms: _327  and  _328
REMARK  135  A    between atoms: _331  and  _333
REMARK  136  A    between atoms: _333  and  _334
REMARK  137  A    between atoms: _337  and  _339
REMARK  138  A    between atoms: _339  and  _340
REMARK  139  A    between atoms: _343  and  _345
REMARK  140  A    between atoms: _345  and  _346
REMARK  141  A    between atoms: _345  and  _348
REMARK  142  A    between atoms: _348  and  _349
REMARK  143  A    between atoms: _349  and  _350
REMARK  144  A    between atoms: _350  and  _351
REMARK  145  A    between atoms: _360  and  _362
REMARK  146  A    between atoms: _362  and  _363
REMARK  147  A    between atoms: _362  and  _365
REMARK  148  A    between atoms: _365  and  _366
REMARK  149  A    between atoms: _371  and  _373
REMARK  150  A    between atoms: _373  and  _374
REMARK  151  A    between atoms: _373  and  _376
REMARK  152  A    between atoms: _378  and  _380
REMARK  153  A    between atoms: _380  and  _381
REMARK  154  A    between atoms: _380  and  _383
REMARK  155  A    between atoms: _383  and  _384
REMARK  156  A    between atoms: _384  and  _385
REMARK  157  A    between atoms: _387  and  _389
REMARK  158  A    between atoms: _389  and  _390
REMARK  159  A    between atoms: _389  and  _392
REMARK  160  A    between atoms: _392  and  _393
REMARK  161  A    between atoms: _396  and  _398
REMARK  162  A    between atoms: _398  and  _399
REMARK  163  A    between atoms: _398  and  _401
REMARK  164  A    between atoms: _401  and  _402
REMARK  165  A    between atoms: _405  and  _407
REMARK  166  A    between atoms: _407  and  _408
REMARK  167  A    between atoms: _407  and  _410
REMARK  168  A    between atoms: _410  and  _411
REMARK  169  A    between atoms: _411  and  _412
REMARK  170  A    between atoms: _412  and  _413
REMARK  171  A    between atoms: _413  and  _414
REMARK  172  A    between atoms: _418  and  _420
REMARK  173  A    between atoms: _420  and  _421
REMARK  174  A    between atoms: _420  and  _423
REMARK  175  A    between atoms: _426  and  _428
REMARK  176  A    between atoms: _428  and  _429
REMARK  177  A    between atoms: _432  and  _434
REMARK  178  A    between atoms: _434  and  _435
REMARK  179  A    between atoms: _434  and  _437
REMARK  180  A    between atoms: _437  and  _438
REMARK  181  A    between atoms: _441  and  _443
REMARK  182  A    between atoms: _443  and  _444
REMARK  183  A    between atoms: _443  and  _446
REMARK  184  A    between atoms: _446  and  _447
REMARK  185  A    between atoms: _453  and  _455
REMARK  186  A    between atoms: _455  and  _456
REMARK  187  A    between atoms: _455  and  _458
REMARK  188  A    between atoms: _458  and  _459
REMARK  189  A    between atoms: _462  and  _464
REMARK  190  A    between atoms: _464  and  _465
REMARK  191  A    between atoms: _468  and  _470
REMARK  192  A    between atoms: _470  and  _471
REMARK  193  A    between atoms: _470  and  _473
REMARK  194  A    between atoms: _473  and  _474
REMARK  195  A    between atoms: _474  and  _475
REMARK  196  A    between atoms: _475  and  _476
REMARK  197  A    between atoms: _485  and  _487
REMARK  198  A    between atoms: _487  and  _488
REMARK  199  A    between atoms: _487  and  _490
REMARK  200  A    between atoms: _490  and  _491
REMARK  201  A    between atoms: _494  and  _496
REMARK  202  A    between atoms: _496  and  _497
REMARK  203  A    between atoms: _496  and  _499
REMARK  204  A    between atoms: _499  and  _500
REMARK  205  A    between atoms: _500  and  _501
REMARK  206  A    between atoms: _503  and  _505
REMARK  207  A    between atoms: _505  and  _506
REMARK  208  A    between atoms: _505  and  _508
REMARK  209  A    between atoms: _508  and  _509
REMARK  210  A    between atoms: _514  and  _515
REMARK  211  A    between atoms: _517  and  _519
REMARK  212  A    between atoms: _519  and  _520
REMARK  213  A    between atoms: _519  and  _522
REMARK  214  A    between atoms: _522  and  _523
REMARK  215  A    between atoms: _526  and  _528
REMARK  216  A    between atoms: _528  and  _529
REMARK  217  A    between atoms: _528  and  _531
REMARK  218  A    between atoms: _531  and  _532
REMARK  219  A    between atoms: _537  and  _538
REMARK                            x       y       z     vdW  Elec       q    Type
REMARK                         _______ _______ _______ _____ _____    ______ ____
ROOT
ATOM      1  C   LEU A   1      22.091  83.802  16.038  0.00  0.00    +0.238 C 
ATOM      2  O   LEU A   1      21.059  83.878  16.705  0.00  0.00    -0.274 OA
ATOM      3  N   SER A   2      23.093  84.669  16.156  0.00  0.00    -0.296 N 
ATOM      4  H   SER A   2      23.940  84.558  15.563  0.00  0.00    +0.150 HD
ENDROOT
BRANCH   1   5
ATOM      5  CA  LEU A   1      22.275  82.692  15.009  0.00  0.00    +0.145 C 
BRANCH   5   6
ATOM      6  N   LEU A   1      21.962  81.391  15.601  0.00  0.00    -0.238 NA
ATOM      7  H   LEU A   1      21.197  80.814  15.196  0.00  0.00    +0.142 HD
ENDBRANCH   5   6
BRANCH   5   8
ATOM      8  CB  LEU A   1      21.370  82.970  13.807  0.00  0.00    +0.026 C 
BRANCH   8   9
ATOM      9  CG  LEU A   1      21.691  84.250  13.028  0.00  0.00    +0.002 C 
ATOM     10  CD2 LEU A   1      23.013  84.088  12.302  0.00  0.00    +0.000 C 
ATOM     11  CD1 LEU A   1      20.575  84.543  12.039  0.00  0.00    +0.000 C 
ENDBRANCH   8   9
ENDBRANCH   5   8
ENDBRANCH   1   5
BRANCH   3  12
ATOM     12  CA  SER A   2      23.021  85.773  17.105  0.00  0.00    +0.166 C 
BRANCH  12  13
ATOM     13  CB  SER A   2      22.491  87.045  16.452  0.00  0.00    +0.229 C 
ATOM     14  OG  SER A   2      22.400  87.146  15.229  0.00  0.00    -0.286 OA
ENDBRANCH  12  13
BRANCH  12  15
ATOM     15  C   SER A   2      24.401  86.038  17.712  0.00  0.00    +0.165 C 
BRANCH  15  16
ATOM     16  O   SER A   2      25.327  86.410  16.713  0.00  0.00    -0.380 OA
ATOM     17  H   SER A   2      26.210  86.576  17.129  0.00  0.00    +0.211 HD
ENDBRANCH  15  16
ENDBRANCH  12  15
ENDBRANCH   3  12
TORSDOF 8
REMARK  Name = ../refined-set-2016/3zcl/3zcl_pocket.pdb
REMARK  219 active torsions:
REMARK  status: ('A' for Active; 'I' for Inactive)
REMARK    1  A    between atoms: _1  and  _3
REMARK    2  A    between atoms: _3  and  _4
REMARK    3  A    between atoms: _3  and  _6
REMARK    4  A    between atoms: _9  and  _11
REMARK    5  A    between atoms: _11  and  _12
REMARK    6  A    between atoms: _11  and  _14
REMARK    7  A    between atoms: _14  and  _15
REMARK    8  A    between atoms: _18  and  _20
REMARK    9  A    between atoms: _20  and  _21
REMARK   10  A    between atoms: _23  and  _25
REMARK   11  A    between atoms: _25  and  _26
REMARK   12  A    between atoms: _25  and  _28
REMARK   13  A    between atoms: _28  and  _29
REMARK   14  A    between atoms: _29  and  _30
REMARK   15  A    between atoms: _30  and  _31
REMARK   16  A    between atoms: _40  and  _42
REMARK   17  A    between atoms: _42  and  _43
REMARK   18  A    between atoms: _45  and  _47
REMARK   19  A    between atoms: _47  and  _48
REMARK   20  A    between atoms: _47  and  _50
REMARK   21  A    between atoms: _52  and  _54
REMARK   22  A    between atoms: _54  and  _55
REMARK   23  A    between atoms: _54  and  _57
REMARK   24  A    between atoms: _60  and  _62
REMARK   25  A    between atoms: _62  and  _63
REMARK   26  A    between atoms: _62  and  _65
REMARK   27  A    between atoms: _65  and  _66
REMARK   28  A    between atoms: _71  and  _72
REMARK   29  A    between atoms: _74  and  _76
REMARK   30  A    between atoms: _76  and  _77
REMARK   31  A    between atoms: _76  and  _79
REMARK   32  A    between atoms: _79  and  _80
REMARK   33  A    between atoms: _85  and  _87
REMARK   34  A    between atoms: _87  and  _88
REMARK   35  A    between atoms: _90  and  _92
REMARK   36  A    between atoms: _92  and  _93
REMARK   37  A    between atoms: _92  and  _95
REMARK   38  A    between atoms: _95  and  _96
REMARK   39  A    between atoms: _101  and  _103
REMARK   40  A    between atoms: _103  and  _104
REMARK   41  A    between atoms: _103  and  _106
REMARK   42  A    between atoms: _108  and  _110
REMARK   43  A    between atoms: _110  and  _111
REMARK   44  A    between atoms: _114  and  _116
REMARK   45  A    between atoms: _116  and  _117
REMARK   46  A    between atoms: _116  and  _119
REMARK   47  A    between atoms: _122  and  _124
REMARK   48  A    between atoms: _124  and  _125
REMARK   49  A    between atoms: _124  and  _127
REMARK   50  A    between atoms: _127  and  _128
REMARK   51  A    between atoms: _128  and  _129
REMARK   52  A    between atoms: _129  and  _130
REMARK   53  A    between atoms: _130  and  _131
REMARK   54  A    between atoms: _135  and  _137
REMARK   55  A    between atoms: _137  and  _138
REMARK   56  A    between atoms: _137  and  _140
REMARK   57  A    between atoms: _140  and  _141
REMARK   58  A    between atoms: _143  and  _145
REMARK   59  A    between atoms: _145  and  _146
REMARK   60  A    between atoms: _145  and  _148
REMARK   61  A    between atoms: _148  and  _149
REMARK   62  A    between atoms: _149  and  _150
REMARK   63  A    between atoms: _152  and  _154
REMARK   64  A    between atoms: _154  and  _155
REMARK   65  A    between atoms: _154  and  _157
REMARK   66  A    between atoms: _157  and  _158
REMARK   67  A    between atoms: _161  and  _163
REMARK   68  A    between atoms: _163  and  _164
REMARK   69  A    between atoms: _163  and  _166
REMARK   70  A    between atoms: _166  and  _167
REMARK   71  A    between atoms: _169  and  _171
REMARK   72  A    between atoms: _171  and  _172
REMARK   73  A    between atoms: _171  and  _174
REMARK   74  A    between atoms: _177  and  _179
REMARK   75  A    between atoms: _179  and  _180
REMARK   76  A    between atoms: _179  and  _182
REMARK   77  A    between atoms: _185  and  _187
REMARK   78  A    between atoms: _187  and  _188
REMARK   79  A    between atoms: _187  and  _190
REMARK   80  A    between atoms: _190  and  _191
REMARK   81  A    between atoms: _195  and  _196
REMARK   82  A    between atoms: _201  and  _203
REMARK   83  A    between atoms: _203  and  _204
REMARK   84  A    between atoms: _203  and  _206
REMARK   85  A    between atoms: _206  and  _207
REMARK   86  A    between atoms: _212  and  _213
REMARK   87  A    between atoms: _215  and  _217
REMARK   88  A    between atoms: _217  and  _218
REMARK   89  A    between atoms: _217  and  _220
REMARK   90  A    between atoms: _220  and  _221
REMARK   91  A    between atoms: _221  and  _222
REMARK   92  A    between atoms: _224  and  _226
REMARK   93  A    between atoms: _226  and  _227
REMARK   94  A    between atoms: _226  and  _229
REMARK   95  A    between atoms: _229  and  _230
REMARK   96  A    between atoms: _230  and  _231
REMARK   97  A    between atoms: _231  and  _232
REMARK   98  A    between atoms: _232  and  _233
REMARK   99  A    between atoms: _237  and  _239
REMARK  100  A    between atoms: _239  and  _240
REMARK  101  A    between atoms: _239  and  _242
REMARK  102  A    between atoms: _242  and  _243
REMARK  103  A    between atoms: _248  and  _250
REMARK  104  A    between atoms: _250  and  _251
REMARK  105  A    between atoms: _253  and  _255
REMARK  106  A    between atoms: _255  and  _256
REMARK  107  A    between atoms: _255  and  _258
REMARK  108  A    between atoms: _258  and  _259
REMARK  109  A    between atoms: _262  and  _264
REMARK  110  A    between atoms: _264  and  _265
REMARK  111  A    between atoms: _264  and  _267
REMARK  112  A    between atoms: _267  and  _268
REMARK  113  A    between atoms: _271  and  _273
REMARK  114  A    between atoms: _273  and  _274
REMARK  115  A    between atoms: _273  and  _276
REMARK  116  A    between atoms: _276  and  _277
REMARK  117  A    between atoms: _277  and  _278
REMARK  118  A    between atoms: _278  and  _279
REMARK  119  A    between atoms: _288  and  _290
REMARK  120  A    between atoms: _290  and  _291
REMARK  121  A    between atoms: _290  and  _293
REMARK  122  A    between atoms: _293  and  _294
REMARK  123  A    between atoms: _299  and  _301
REMARK  124  A    between atoms: _301  and  _302
REMARK  125  A    between atoms: _301  and  _304
REMARK  126  A    between atoms: _304  and  _305
REMARK  127  A    between atoms: _311  and  _313
REMARK  128  A    between atoms: _313  and  _314
REMARK  129  A    between atoms: _313  and  _316
REMARK  130  A    between atoms: _316  and  _317
REMARK  131  A    between atoms: _322  and  _324
REMARK  132  A    between atoms: _324  and  _325
REMARK  133  A    between atoms: _324  and  _327
REMARK  134  A    between atoms: _327  and  _328
REMARK  135  A    between atoms: _331  and  _333
REMARK  136  A    between atoms: _333  and  _334
REMARK  137  A    between atoms: _337  and  _339
REMARK  138  A    between atoms: _339  and  _340
REMARK  139  A    between atoms: _343  and  _345
REMARK  140  A    between atoms: _345  and  _346
REMARK  141  A    between atoms: _345  and  _348
REMARK  142  A    between atoms: _348  and  _349
REMARK  143  A    between atoms: _349  and  _350
REMARK  144  A    between atoms: _350  and  _351
REMARK  145  A    between atoms: _360  and  _362
REMARK  146  A    between atoms: _362  and  _363
REMARK  147  A    between atoms: _362  and  _365
REMARK  148  A    between atoms: _365  and  _366
REMARK  149  A    between atoms: _371  and  _373
REMARK  150  A    between atoms: _373  and  _374
REMARK  151  A    between atoms: _373  and  _376
REMARK  152  A    between atoms: _378  and  _380
REMARK  153  A    between atoms: _380  and  _381
REMARK  154  A    between atoms: _380  and  _383
REMARK  155  A    between atoms: _383  and  _384
REMARK  156  A    between atoms: _384  and  _385
REMARK  157  A    between atoms: _387  and  _389
REMARK  158  A    between atoms: _389  and  _390
REMARK  159  A    between atoms: _389  and  _392
REMARK  160  A    between atoms: _392  and  _393
REMARK  161  A    between atoms: _396  and  _398
REMARK  162  A    between atoms: _398  and  _399
REMARK  163  A    between atoms: _398  and  _401
REMARK  164  A    between atoms: _401  and  _402
REMARK  165  A    between atoms: _405  and  _407
REMARK  166  A    between atoms: _407  and  _408
REMARK  167  A    between atoms: _407  and  _410
REMARK  168  A    between atoms: _410  and  _411
REMARK  169  A    between atoms: _411  and  _412
REMARK  170  A    between atoms: _412  and  _413
REMARK  171  A    between atoms: _413  and  _414
REMARK  172  A    between atoms: _418  and  _420
REMARK  173  A    between atoms: _420  and  _421
REMARK  174  A    between atoms: _420  and  _423
REMARK  175  A    between atoms: _426  and  _428
REMARK  176  A    between atoms: _428  and  _429
REMARK  177  A    between atoms: _432  and  _434
REMARK  178  A    between atoms: _434  and  _435
REMARK  179  A    between atoms: _434  and  _437
REMARK  180  A    between atoms: _437  and  _438
REMARK  181  A    between atoms: _441  and  _443
REMARK  182  A    between atoms: _443  and  _444
REMARK  183  A    between atoms: _443  and  _446
REMARK  184  A    between atoms: _446  and  _447
REMARK  185  A    between atoms: _453  and  _455
REMARK  186  A    between atoms: _455  and  _456
REMARK  187  A    between atoms: _455  and  _458
REMARK  188  A    between atoms: _458  and  _459
REMARK  189  A    between atoms: _462  and  _464
REMARK  190  A    between atoms: _464  and  _465
REMARK  191  A    between atoms: _468  and  _470
REMARK  192  A    between atoms: _470  and  _471
REMARK  193  A    between atoms: _470  and  _473
REMARK  194  A    between atoms: _473  and  _474
REMARK  195  A    between atoms: _474  and  _475
REMARK  196  A    between atoms: _475  and  _476
REMARK  197  A    between atoms: _485  and  _487
REMARK  198  A    between atoms: _487  and  _488
REMARK  199  A    between atoms: _487  and  _490
REMARK  200  A    between atoms: _490  and  _491
REMARK  201  A    between atoms: _494  and  _496
REMARK  202  A    between atoms: _496  and  _497
REMARK  203  A    between atoms: _496  and  _499
REMARK  204  A    between atoms: _499  and  _500
REMARK  205  A    between atoms: _500  and  _501
REMARK  206  A    between atoms: _503  and  _505
REMARK  207  A    between atoms: _505  and  _506
REMARK  208  A    between atoms: _505  and  _508
REMARK  209  A    between atoms: _508  and  _509
REMARK  210  A    between atoms: _514  and  _515
REMARK  211  A    between atoms: _517  and  _519
REMARK  212  A    between atoms: _519  and  _520
REMARK  213  A    between atoms: _519  and  _522
REMARK  214  A    between atoms: _522  and  _523
REMARK  215  A    between atoms: _526  and  _528
REMARK  216  A    between atoms: _528  and  _529
REMARK  217  A    between atoms: _528  and  _531
REMARK  218  A    between atoms: _531  and  _532
REMARK  219  A    between atoms: _537  and  _538
REMARK                            x       y       z     vdW  Elec       q    Type
REMARK                         _______ _______ _______ _____ _____    ______ ____
ROOT
ATOM      1  CA  HIS A   8      28.877  79.850   3.394  0.00  0.00    +0.155 C 
ENDROOT
BRANCH   1   3
ATOM      2  C   LYS A   7      29.630  82.128   3.632  0.00  0.00    +0.241 C 
ATOM      3  N   HIS A   8      29.162  81.026   4.202  0.00  0.00    -0.297 N 
ATOM      4  H   HIS A   8      28.998  81.002   5.229  0.00  0.00    +0.150 HD
ATOM      5  O   LYS A   7      29.742  82.242   2.414  0.00  0.00    -0.273 OA
BRANCH   2   6
ATOM      6  CA  LYS A   7      30.040  83.265   4.560  0.00  0.00    +0.149 C 
BRANCH   6   8
ATOM      7  C   MET A   6      27.917  83.435   5.766  0.00  0.00    +0.241 C 
ATOM      8  N   LYS A   7      29.243  83.349   5.778  0.00  0.00    -0.297 N 
ATOM      9  H   LYS A   7      29.733  83.341   6.695  0.00  0.00    +0.150 HD
ATOM     10  O   MET A   6      27.239  83.288   4.752  0.00  0.00    -0.273 OA
BRANCH   7  11
ATOM     11  CA  MET A   6      27.269  83.732   7.110  0.00  0.00    +0.149 C 
BRANCH  11  14
ATOM     12  C   TYR A   5      27.705  85.976   7.930  0.00  0.00    +0.241 C 
ATOM     13  O   TYR A   5      28.685  85.602   8.582  0.00  0.00    -0.273 OA
ATOM     14  N   MET A   6      26.966  85.153   7.198  0.00  0.00    -0.297 N 
ATOM     15  H   MET A   6      26.151  85.532   6.675  0.00  0.00    +0.150 HD
BRANCH  12  16
ATOM     16  CA  TYR A   5      27.262  87.434   7.942  0.00  0.00    +0.153 C 
BRANCH  16  19
ATOM     17  C   PRO A   4      26.206  87.622  10.120  0.00  0.00    +0.241 C 
ATOM     18  O   PRO A   4      25.229  86.956   9.762  0.00  0.00    -0.273 OA
ATOM     19  N   TYR A   5      27.219  87.917   9.313  0.00  0.00    -0.297 N 
ATOM     20  H   TYR A   5      27.998  88.506   9.669  0.00  0.00    +0.150 HD
BRANCH  17  26
ATOM     21  C   LEU A   3      24.322  89.546  11.362  0.00  0.00    +0.244 C 
ATOM     22  N   PRO A   4      24.989  88.586  12.017  0.00  0.00    -0.272 N 
ATOM     23  CD  PRO A   4      24.568  87.861  13.227  0.00  0.00    +0.094 C 
ATOM     24  CG  PRO A   4      25.864  87.297  13.738  0.00  0.00    +0.024 C 
ATOM     25  CB  PRO A   4      26.695  87.043  12.527  0.00  0.00    +0.031 C 
ATOM     26  CA  PRO A   4      26.304  88.149  11.544  0.00  0.00    +0.152 C 
ATOM     27  O   LEU A   3      24.830  90.172  10.432  0.00  0.00    -0.273 OA
BRANCH  21  28
ATOM     28  CA  LEU A   3      22.890  89.821  11.800  0.00  0.00    +0.149 C 
BRANCH  28  31
ATOM     29  C   VAL A   2      22.095  92.089  12.251  0.00  0.00    +0.241 C 
ATOM     30  O   VAL A   2      22.089  91.913  13.467  0.00  0.00    -0.273 OA
ATOM     31  N   LEU A   3      22.485  91.161  11.384  0.00  0.00    -0.297 N 
ATOM     32  H   LEU A   3      22.503  91.398  10.371  0.00  0.00    +0.150 HD
BRANCH  29  33
ATOM     33  CA  VAL A   2      21.623  93.404  11.644  0.00  0.00    +0.148 C 
BRANCH  33  35
ATOM     34  C   VAL A   1      19.266  93.567  11.121  0.00  0.00    +0.238 C 
ATOM     35  N   VAL A   2      20.239  93.648  12.022  0.00  0.00    -0.297 N 
ATOM     36  H   VAL A   2      20.009  93.888  13.007  0.00  0.00    +0.150 HD
ATOM     37  O   VAL A   1      19.468  93.232   9.956  0.00  0.00    -0.274 OA
BRANCH  34  38
ATOM     38  CA  VAL A   1      17.866  93.933  11.590  0.00  0.00    +0.145 C 
BRANCH  38  39
ATOM     39  CB  VAL A   1      16.998  92.658  11.631  0.00  0.00    +0.025 C 
ATOM     40  CG2 VAL A   1      17.551  91.683  12.663  0.00  0.00    +0.002 C 
ATOM     41  CG1 VAL A   1      15.554  93.022  11.953  0.00  0.00    +0.002 C 
ENDBRANCH  38  39
BRANCH  38  42
ATOM     42  N   VAL A   1      17.310  94.919  10.674  0.00  0.00    -0.238 NA
ATOM     43  H   VAL A   1      16.869  94.605   9.786  0.00  0.00    +0.142 HD
ENDBRANCH  38  42
ENDBRANCH  34  38
ENDBRANCH  33  35
BRANCH  33  44
ATOM     44  CB  VAL A   2      22.543  94.562  12.108  0.00  0.00    +0.027 C 
ATOM     45  CG2 VAL A   2      21.990  95.899  11.609  0.00  0.00    +0.002 C 
ATOM     46  CG1 VAL A   2      23.954  94.350  11.577  0.00  0.00    +0.002 C 
ENDBRANCH  33  44
ENDBRANCH  29  33
ENDBRANCH  28  31
BRANCH  28  47
ATOM     47  CB  LEU A   3      21.972  88.765  11.171  0.00  0.00    +0.029 C 
BRANCH  47  48
ATOM     48  CG  LEU A   3      20.483  88.771  11.528  0.00  0.00    +0.002 C 
ATOM     49  CD2 LEU A   3      20.302  88.767  13.033  0.00  0.00    +0.000 C 
ATOM     50  CD1 LEU A   3      19.825  87.546  10.932  0.00  0.00    +0.000 C 
ENDBRANCH  47  48
ENDBRANCH  28  47
ENDBRANCH  21  28
ENDBRANCH  17  26
ENDBRANCH  16  19
BRANCH  16  51
ATOM     51  CB  TYR A   5      28.229  88.288   7.113  0.00  0.00    +0.055 C 
BRANCH  51  52
ATOM     52  CG  TYR A   5      28.455  87.783   5.705  0.00  0.00    -0.020 A 
ATOM     53  CD2 TYR A   5      29.686  87.265   5.322  0.00  0.00    -0.001 A 
ATOM     54  CE2 TYR A   5      29.901  86.815   4.032  0.00  0.00    +0.036 A 
ATOM     55  CZ  TYR A   5      28.879  86.876   3.109  0.00  0.00    +0.134 A 
ATOM     56  CE1 TYR A   5      27.646  87.382   3.465  0.00  0.00    +0.036 A 
ATOM     57  CD1 TYR A   5      27.441  87.833   4.756  0.00  0.00    -0.001 A 
BRANCH  55  58
ATOM     58  OH  TYR A   5      29.093  86.435   1.822  0.00  0.00    -0.506 OA
ATOM     59  HH  TYR A   5      28.264  86.548   1.293  0.00  0.00    +0.292 HD
ENDBRANCH  55  58
ENDBRANCH  51  52
ENDBRANCH  16  51
ENDBRANCH  12  16
ENDBRANCH  11  14
BRANCH  11  60
ATOM     60  CB  MET A   6      25.983  82.917   7.281  0.00  0.00    +0.041 C 
BRANCH  60  61
ATOM     61  CG  MET A   6      25.335  83.097   8.649  0.00  0.00    +0.060 C 
BRANCH  61  62
ATOM     62  SD  MET A   6      26.229  82.245   9.968  0.00  0.00    -0.139 S 
ATOM     63  CE  MET A   6      26.707  83.597  11.034  0.00  0.00    +0.069 C 
ENDBRANCH  61  62
ENDBRANCH  60  61
ENDBRANCH  11  60
ENDBRANCH   7  11
ENDBRANCH   6   8
BRANCH   6  64
ATOM     64  CB  LYS A   7      31.519  83.108   4.922  0.00  0.00    +0.029 C 
BRANCH  64  65
ATOM     65  CG  LYS A   7      32.408  82.719   3.755  0.00  0.00    +0.000 C 
BRANCH  65  66
ATOM     66  CD  LYS A   7      33.780  82.274   4.236  0.00  0.00    -0.024 C 
BRANCH  66  67
ATOM     67  CE  LYS A   7      34.589  81.654   3.107  0.00  0.00    -0.086 C 
BRANCH  67  68
ATOM     68  NZ  LYS A   7      35.883  81.097   3.597  0.00  0.00    +0.380 N 
ATOM     69  HZ1 LYS A   7      35.695  80.362   4.308  0.00  0.00    -0.089 HD
ATOM     70  HZ2 LYS A   7      36.447  81.859   4.025  0.00  0.00    -0.089 HD
ATOM     71  HZ3 LYS A   7      36.406  80.683   2.799  0.00  0.00    -0.089 HD
ENDBRANCH  67  68
ENDBRANCH  66  67
ENDBRANCH  65  66
ENDBRANCH  64  65
ENDBRANCH   6  64
ENDBRANCH   2   6
ENDBRANCH   1   3
BRANCH   1  72
ATOM     72  C   HIS A   8      27.390  79.634   3.139  0.00  0.00    +0.241 C 
ATOM     73  N   GLY A   9      26.578  80.635   3.465  0.00  0.00    -0.295 N 
ATOM     74  H   GLY A   9      26.947  81.442   4.008  0.00  0.00    +0.150 HD
ATOM     75  O   HIS A   8      26.989  78.579   2.654  0.00  0.00    -0.273 OA
BRANCH  73  76
ATOM     76  CA  GLY A   9      25.181  80.612   3.069  0.00  0.00    +0.176 C 
BRANCH  76  77
ATOM     77  C   GLY A   9      24.339  79.618   3.844  0.00  0.00    +0.243 C 
ATOM     78  O   GLY A   9      24.688  79.221   4.951  0.00  0.00    -0.273 OA
ATOM     79  N   ASP A  10      23.218  79.211   3.262  0.00  0.00    -0.296 N 
ATOM     80  H   ASP A  10      22.974  79.552   2.310  0.00  0.00    +0.150 HD
BRANCH  79  81
ATOM     81  CA  ASP A  10      22.330  78.289   3.953  0.00  0.00    +0.160 C 
BRANCH  81  82
ATOM     82  C   ASP A  10      22.782  76.853   3.743  0.00  0.00    +0.241 C 
ATOM     83  N   LEU A  11      22.435  76.004   4.701  0.00  0.00    -0.297 N 
ATOM     84  H   LEU A  11      21.801  76.334   5.456  0.00  0.00    +0.150 HD
ATOM     85  O   ASP A  10      23.419  76.521   2.741  0.00  0.00    -0.273 OA
BRANCH  83  86
ATOM     86  CA  LEU A  11      22.905  74.635   4.736  0.00  0.00    +0.149 C 
BRANCH  86  87
ATOM     87  C   LEU A  11      22.413  73.835   3.535  0.00  0.00    +0.241 C 
ATOM     88  N   ARG A  12      21.186  74.089   3.088  0.00  0.00    -0.297 N 
ATOM     89  H   ARG A  12      20.610  74.838   3.522  0.00  0.00    +0.150 HD
ATOM     90  O   LEU A  11      23.141  72.993   3.003  0.00  0.00    -0.273 OA
BRANCH  88  91
ATOM     91  CA  ARG A  12      20.663  73.300   1.979  0.00  0.00    +0.149 C 
BRANCH  91  92
ATOM     92  C   ARG A  12      21.448  73.554   0.695  0.00  0.00    +0.241 C 
ATOM     93  N   ASN A  13      21.668  74.817   0.357  0.00  0.00    -0.297 N 
ATOM     94  H   ASN A  13      21.301  75.593   0.945  0.00  0.00    +0.150 HD
ATOM     95  O   ARG A  12      21.862  72.612   0.017  0.00  0.00    -0.273 OA
BRANCH  93  96
ATOM     96  CA  ASN A  13      22.430  75.101  -0.848  0.00  0.00    +0.158 C 
BRANCH  96  97
ATOM     97  C   ASN A  13      23.866  74.615  -0.723  0.00  0.00    +0.241 C 
ATOM     98  N   PHE A  14      24.408  74.651   0.491  0.00  0.00    -0.298 N 
ATOM     99  H   PHE A  14      23.850  74.998   1.297  0.00  0.00    +0.150 HD
ATOM    100  O   ASN A  13      24.471  74.196  -1.710  0.00  0.00    -0.273 OA
BRANCH  98 101
ATOM    101  CA  PHE A  14      25.779  74.207   0.696  0.00  0.00    +0.141 C 
BRANCH 101 102
ATOM    102  C   PHE A  14      25.935  72.736   0.343  0.00  0.00    +0.227 C 
ATOM    103  O   PHE A  14      26.897  72.349  -0.319  0.00  0.00    -0.286 OA
ENDBRANCH 101 102
BRANCH 101 104
ATOM    104  CB  PHE A  14      26.212  74.431   2.145  0.00  0.00    +0.054 C 
BRANCH 104 105
ATOM    105  CG  PHE A  14      27.649  74.071   2.407  0.00  0.00    -0.020 A 
ATOM    106  CD2 PHE A  14      28.000  72.784   2.788  0.00  0.00    -0.004 A 
ATOM    107  CE2 PHE A  14      29.324  72.450   3.019  0.00  0.00    -0.000 A 
ATOM    108  CZ  PHE A  14      30.311  73.403   2.871  0.00  0.00    -0.000 A 
ATOM    109  CE1 PHE A  14      29.974  74.687   2.494  0.00  0.00    -0.000 A 
ATOM    110  CD1 PHE A  14      28.648  75.017   2.264  0.00  0.00    -0.004 A 
ENDBRANCH 104 105
ENDBRANCH 101 104
ENDBRANCH  98 101
ENDBRANCH  96  97
BRANCH  96 111
ATOM    111  CB  ASN A  13      22.402  76.597  -1.167  0.00  0.00    +0.114 C 
BRANCH 111 112
ATOM    112  CG  ASN A  13      21.149  76.999  -1.923  0.00  0.00    +0.222 C 
ATOM    113  ND2 ASN A  13      20.477  78.039  -1.447  0.00  0.00    -0.329 N 
ATOM    114 HD21 ASN A  13      20.822  78.538  -0.602  0.00  0.00    +0.145 HD
ATOM    115 HD22 ASN A  13      19.605  78.355  -1.918  0.00  0.00    +0.145 HD
ATOM    116  OD1 ASN A  13      20.786  76.371  -2.920  0.00  0.00    -0.275 OA
ENDBRANCH 111 112
ENDBRANCH  96 111
ENDBRANCH  93  96
ENDBRANCH  91  92
BRANCH  91 117
ATOM    117  CB  ARG A  12      19.175  73.582   1.737  0.00  0.00    +0.033 C 
BRANCH 117 118
ATOM    118  CG  ARG A  12      18.596  72.632   0.694  0.00  0.00    +0.045 C 
BRANCH 118 119
ATOM    119  CD  ARG A  12      17.156  72.929   0.324  0.00  0.00    +0.174 C 
BRANCH 119 120
ATOM    120  NE  ARG A  12      16.664  71.907  -0.597  0.00  0.00    -0.265 N 
ATOM    121  HE  ARG A  12      16.793  70.912  -0.324  0.00  0.00    +0.259 HD
ATOM    122  CZ  ARG A  12      16.065  72.153  -1.756  0.00  0.00    +0.342 C 
ATOM    123  NH2 ARG A  12      15.868  73.401  -2.160  0.00  0.00    -0.292 N 
ATOM    124 HH21 ARG A  12      16.184  74.195  -1.567  0.00  0.00    +0.255 HD
ATOM    125 HH22 ARG A  12      15.398  73.585  -3.069  0.00  0.00    +0.255 HD
ATOM    126  NH1 ARG A  12      15.662  71.141  -2.518  0.00  0.00    -0.292 N 
ATOM    127 HH11 ARG A  12      15.816  70.161  -2.205  0.00  0.00    +0.255 HD
ATOM    128 HH12 ARG A  12      15.192  71.329  -3.427  0.00  0.00    +0.255 HD
ENDBRANCH 119 120
ENDBRANCH 118 119
ENDBRANCH 117 118
ENDBRANCH  91 117
ENDBRANCH  88  91
ENDBRANCH  86  87
BRANCH  86 129
ATOM    129  CB  LEU A  11      22.444  73.982   6.040  0.00  0.00    +0.029 C 
BRANCH 129 130
ATOM    130  CG  LEU A  11      22.841  72.532   6.316  0.00  0.00    +0.002 C 
ATOM    131  CD2 LEU A  11      22.260  72.106   7.655  0.00  0.00    +0.000 C 
ATOM    132  CD1 LEU A  11      24.360  72.389   6.322  0.00  0.00    +0.000 C 
ENDBRANCH 129 130
ENDBRANCH  86 129
ENDBRANCH  83  86
ENDBRANCH  81  82
BRANCH  81 133
ATOM    133  CB  ASP A  10      20.886  78.455   3.467  0.00  0.00    +0.143 C 
BRANCH 133 134
ATOM    134  CG  ASP A  10      20.700  78.007   2.038  0.00  0.00    +0.367 C 
ATOM    135  OD2 ASP A  10      20.152  76.904   1.827  0.00  0.00    -0.246 OA
ATOM    136  OD1 ASP A  10      21.105  78.759   1.124  0.00  0.00    -0.246 OA
ENDBRANCH 133 134
ENDBRANCH  81 133
ENDBRANCH  79  81
ENDBRANCH  76  77
ENDBRANCH  73  76
ENDBRANCH   1  72
BRANCH   1 137
ATOM    137  CB  HIS A   8      29.494  78.612   4.046  0.00  0.00    +0.076 C 
BRANCH 137 138
ATOM    138  CG  HIS A   8      30.990  78.620   4.037  0.00  0.00    +0.082 A 
ATOM    139  ND1 HIS A   8      31.741  78.843   5.171  0.00  0.00    -0.227 NA
ATOM    140  CE1 HIS A   8      33.024  78.839   4.856  0.00  0.00    +0.199 A 
ATOM    141  NE2 HIS A   8      33.133  78.619   3.558  0.00  0.00    -0.221 NA
ATOM    142  CD2 HIS A   8      31.876  78.477   3.022  0.00  0.00    +0.115 A 
ENDBRANCH 137 138
ENDBRANCH   1 137
TORSDOF 56
REMARK  Name = ../refined-set-2016/3zcl/3zcl_pocket.pdb
REMARK  219 active torsions:
REMARK  status: ('A' for Active; 'I' for Inactive)
REMARK    1  A    between atoms: _1  and  _3
REMARK    2  A    between atoms: _3  and  _4
REMARK    3  A    between atoms: _3  and  _6
REMARK    4  A    between atoms: _9  and  _11
REMARK    5  A    between atoms: _11  and  _12
REMARK    6  A    between atoms: _11  and  _14
REMARK    7  A    between atoms: _14  and  _15
REMARK    8  A    between atoms: _18  and  _20
REMARK    9  A    between atoms: _20  and  _21
REMARK   10  A    between atoms: _23  and  _25
REMARK   11  A    between atoms: _25  and  _26
REMARK   12  A    between atoms: _25  and  _28
REMARK   13  A    between atoms: _28  and  _29
REMARK   14  A    between atoms: _29  and  _30
REMARK   15  A    between atoms: _30  and  _31
REMARK   16  A    between atoms: _40  and  _42
REMARK   17  A    between atoms: _42  and  _43
REMARK   18  A    between atoms: _45  and  _47
REMARK   19  A    between atoms: _47  and  _48
REMARK   20  A    between atoms: _47  and  _50
REMARK   21  A    between atoms: _52  and  _54
REMARK   22  A    between atoms: _54  and  _55
REMARK   23  A    between atoms: _54  and  _57
REMARK   24  A    between atoms: _60  and  _62
REMARK   25  A    between atoms: _62  and  _63
REMARK   26  A    between atoms: _62  and  _65
REMARK   27  A    between atoms: _65  and  _66
REMARK   28  A    between atoms: _71  and  _72
REMARK   29  A    between atoms: _74  and  _76
REMARK   30  A    between atoms: _76  and  _77
REMARK   31  A    between atoms: _76  and  _79
REMARK   32  A    between atoms: _79  and  _80
REMARK   33  A    between atoms: _85  and  _87
REMARK   34  A    between atoms: _87  and  _88
REMARK   35  A    between atoms: _90  and  _92
REMARK   36  A    between atoms: _92  and  _93
REMARK   37  A    between atoms: _92  and  _95
REMARK   38  A    between atoms: _95  and  _96
REMARK   39  A    between atoms: _101  and  _103
REMARK   40  A    between atoms: _103  and  _104
REMARK   41  A    between atoms: _103  and  _106
REMARK   42  A    between atoms: _108  and  _110
REMARK   43  A    between atoms: _110  and  _111
REMARK   44  A    between atoms: _114  and  _116
REMARK   45  A    between atoms: _116  and  _117
REMARK   46  A    between atoms: _116  and  _119
REMARK   47  A    between atoms: _122  and  _124
REMARK   48  A    between atoms: _124  and  _125
REMARK   49  A    between atoms: _124  and  _127
REMARK   50  A    between atoms: _127  and  _128
REMARK   51  A    between atoms: _128  and  _129
REMARK   52  A    between atoms: _129  and  _130
REMARK   53  A    between atoms: _130  and  _131
REMARK   54  A    between atoms: _135  and  _137
REMARK   55  A    between atoms: _137  and  _138
REMARK   56  A    between atoms: _137  and  _140
REMARK   57  A    between atoms: _140  and  _141
REMARK   58  A    between atoms: _143  and  _145
REMARK   59  A    between atoms: _145  and  _146
REMARK   60  A    between atoms: _145  and  _148
REMARK   61  A    between atoms: _148  and  _149
REMARK   62  A    between atoms: _149  and  _150
REMARK   63  A    between atoms: _152  and  _154
REMARK   64  A    between atoms: _154  and  _155
REMARK   65  A    between atoms: _154  and  _157
REMARK   66  A    between atoms: _157  and  _158
REMARK   67  A    between atoms: _161  and  _163
REMARK   68  A    between atoms: _163  and  _164
REMARK   69  A    between atoms: _163  and  _166
REMARK   70  A    between atoms: _166  and  _167
REMARK   71  A    between atoms: _169  and  _171
REMARK   72  A    between atoms: _171  and  _172
REMARK   73  A    between atoms: _171  and  _174
REMARK   74  A    between atoms: _177  and  _179
REMARK   75  A    between atoms: _179  and  _180
REMARK   76  A    between atoms: _179  and  _182
REMARK   77  A    between atoms: _185  and  _187
REMARK   78  A    between atoms: _187  and  _188
REMARK   79  A    between atoms: _187  and  _190
REMARK   80  A    between atoms: _190  and  _191
REMARK   81  A    between atoms: _195  and  _196
REMARK   82  A    between atoms: _201  and  _203
REMARK   83  A    between atoms: _203  and  _204
REMARK   84  A    between atoms: _203  and  _206
REMARK   85  A    between atoms: _206  and  _207
REMARK   86  A    between atoms: _212  and  _213
REMARK   87  A    between atoms: _215  and  _217
REMARK   88  A    between atoms: _217  and  _218
REMARK   89  A    between atoms: _217  and  _220
REMARK   90  A    between atoms: _220  and  _221
REMARK   91  A    between atoms: _221  and  _222
REMARK   92  A    between atoms: _224  and  _226
REMARK   93  A    between atoms: _226  and  _227
REMARK   94  A    between atoms: _226  and  _229
REMARK   95  A    between atoms: _229  and  _230
REMARK   96  A    between atoms: _230  and  _231
REMARK   97  A    between atoms: _231  and  _232
REMARK   98  A    between atoms: _232  and  _233
REMARK   99  A    between atoms: _237  and  _239
REMARK  100  A    between atoms: _239  and  _240
REMARK  101  A    between atoms: _239  and  _242
REMARK  102  A    between atoms: _242  and  _243
REMARK  103  A    between atoms: _248  and  _250
REMARK  104  A    between atoms: _250  and  _251
REMARK  105  A    between atoms: _253  and  _255
REMARK  106  A    between atoms: _255  and  _256
REMARK  107  A    between atoms: _255  and  _258
REMARK  108  A    between atoms: _258  and  _259
REMARK  109  A    between atoms: _262  and  _264
REMARK  110  A    between atoms: _264  and  _265
REMARK  111  A    between atoms: _264  and  _267
REMARK  112  A    between atoms: _267  and  _268
REMARK  113  A    between atoms: _271  and  _273
REMARK  114  A    between atoms: _273  and  _274
REMARK  115  A    between atoms: _273  and  _276
REMARK  116  A    between atoms: _276  and  _277
REMARK  117  A    between atoms: _277  and  _278
REMARK  118  A    between atoms: _278  and  _279
REMARK  119  A    between atoms: _288  and  _290
REMARK  120  A    between atoms: _290  and  _291
REMARK  121  A    between atoms: _290  and  _293
REMARK  122  A    between atoms: _293  and  _294
REMARK  123  A    between atoms: _299  and  _301
REMARK  124  A    between atoms: _301  and  _302
REMARK  125  A    between atoms: _301  and  _304
REMARK  126  A    between atoms: _304  and  _305
REMARK  127  A    between atoms: _311  and  _313
REMARK  128  A    between atoms: _313  and  _314
REMARK  129  A    between atoms: _313  and  _316
REMARK  130  A    between atoms: _316  and  _317
REMARK  131  A    between atoms: _322  and  _324
REMARK  132  A    between atoms: _324  and  _325
REMARK  133  A    between atoms: _324  and  _327
REMARK  134  A    between atoms: _327  and  _328
REMARK  135  A    between atoms: _331  and  _333
REMARK  136  A    between atoms: _333  and  _334
REMARK  137  A    between atoms: _337  and  _339
REMARK  138  A    between atoms: _339  and  _340
REMARK  139  A    between atoms: _343  and  _345
REMARK  140  A    between atoms: _345  and  _346
REMARK  141  A    between atoms: _345  and  _348
REMARK  142  A    between atoms: _348  and  _349
REMARK  143  A    between atoms: _349  and  _350
REMARK  144  A    between atoms: _350  and  _351
REMARK  145  A    between atoms: _360  and  _362
REMARK  146  A    between atoms: _362  and  _363
REMARK  147  A    between atoms: _362  and  _365
REMARK  148  A    between atoms: _365  and  _366
REMARK  149  A    between atoms: _371  and  _373
REMARK  150  A    between atoms: _373  and  _374
REMARK  151  A    between atoms: _373  and  _376
REMARK  152  A    between atoms: _378  and  _380
REMARK  153  A    between atoms: _380  and  _381
REMARK  154  A    between atoms: _380  and  _383
REMARK  155  A    between atoms: _383  and  _384
REMARK  156  A    between atoms: _384  and  _385
REMARK  157  A    between atoms: _387  and  _389
REMARK  158  A    between atoms: _389  and  _390
REMARK  159  A    between atoms: _389  and  _392
REMARK  160  A    between atoms: _392  and  _393
REMARK  161  A    between atoms: _396  and  _398
REMARK  162  A    between atoms: _398  and  _399
REMARK  163  A    between atoms: _398  and  _401
REMARK  164  A    between atoms: _401  and  _402
REMARK  165  A    between atoms: _405  and  _407
REMARK  166  A    between atoms: _407  and  _408
REMARK  167  A    between atoms: _407  and  _410
REMARK  168  A    between atoms: _410  and  _411
REMARK  169  A    between atoms: _411  and  _412
REMARK  170  A    between atoms: _412  and  _413
REMARK  171  A    between atoms: _413  and  _414
REMARK  172  A    between atoms: _418  and  _420
REMARK  173  A    between atoms: _420  and  _421
REMARK  174  A    between atoms: _420  and  _423
REMARK  175  A    between atoms: _426  and  _428
REMARK  176  A    between atoms: _428  and  _429
REMARK  177  A    between atoms: _432  and  _434
REMARK  178  A    between atoms: _434  and  _435
REMARK  179  A    between atoms: _434  and  _437
REMARK  180  A    between atoms: _437  and  _438
REMARK  181  A    between atoms: _441  and  _443
REMARK  182  A    between atoms: _443  and  _444
REMARK  183  A    between atoms: _443  and  _446
REMARK  184  A    between atoms: _446  and  _447
REMARK  185  A    between atoms: _453  and  _455
REMARK  186  A    between atoms: _455  and  _456
REMARK  187  A    between atoms: _455  and  _458
REMARK  188  A    between atoms: _458  and  _459
REMARK  189  A    between atoms: _462  and  _464
REMARK  190  A    between atoms: _464  and  _465
REMARK  191  A    between atoms: _468  and  _470
REMARK  192  A    between atoms: _470  and  _471
REMARK  193  A    between atoms: _470  and  _473
REMARK  194  A    between atoms: _473  and  _474
REMARK  195  A    between atoms: _474  and  _475
REMARK  196  A    between atoms: _475  and  _476
REMARK  197  A    between atoms: _485  and  _487
REMARK  198  A    between atoms: _487  and  _488
REMARK  199  A    between atoms: _487  and  _490
REMARK  200  A    between atoms: _490  and  _491
REMARK  201  A    between atoms: _494  and  _496
REMARK  202  A    between atoms: _496  and  _497
REMARK  203  A    between atoms: _496  and  _499
REMARK  204  A    between atoms: _499  and  _500
REMARK  205  A    between atoms: _500  and  _501
REMARK  206  A    between atoms: _503  and  _505
REMARK  207  A    between atoms: _505  and  _506
REMARK  208  A    between atoms: _505  and  _508
REMARK  209  A    between atoms: _508  and  _509
REMARK  210  A    between atoms: _514  and  _515
REMARK  211  A    between atoms: _517  and  _519
REMARK  212  A    between atoms: _519  and  _520
REMARK  213  A    between atoms: _519  and  _522
REMARK  214  A    between atoms: _522  and  _523
REMARK  215  A    between atoms: _526  and  _528
REMARK  216  A    between atoms: _528  and  _529
REMARK  217  A    between atoms: _528  and  _531
REMARK  218  A    between atoms: _531  and  _532
REMARK  219  A    between atoms: _537  and  _538
REMARK                            x       y       z     vdW  Elec       q    Type
REMARK                         _______ _______ _______ _____ _____    ______ ____
ROOT
ATOM      1  CB  HIS A   1      12.424  76.643  15.797  0.00  0.00    +0.072 C 
ENDROOT
BRANCH   1   2
ATOM      2  CG  HIS A   1      13.041  77.256  14.579  0.00  0.00    +0.082 A 
ATOM      3  ND1 HIS A   1      14.302  77.813  14.581  0.00  0.00    -0.227 NA
ATOM      4  CE1 HIS A   1      14.564  78.301  13.382  0.00  0.00    +0.199 A 
ATOM      5  NE2 HIS A   1      13.521  78.079  12.603  0.00  0.00    -0.221 NA
ATOM      6  CD2 HIS A   1      12.556  77.425  13.328  0.00  0.00    +0.115 A 
ENDBRANCH   1   2
BRANCH   1   7
ATOM      7  CA  HIS A   1      11.248  77.447  16.356  0.00  0.00    +0.139 C 
BRANCH   7   8
ATOM      8  N   HIS A   1      10.771  76.836  17.589  0.00  0.00    -0.239 NA
ATOM      9  H   HIS A   1      11.012  75.846  17.797  0.00  0.00    +0.142 HD
ENDBRANCH   7   8
BRANCH   7  10
ATOM     10  C   HIS A   1      10.150  77.563  15.299  0.00  0.00    +0.224 C 
ATOM     11  O   HIS A   1       9.931  78.640  14.743  0.00  0.00    -0.287 OA
ENDBRANCH   7  10
ENDBRANCH   1   7
TORSDOF 4
REMARK  Name = ../refined-set-2016/3zcl/3zcl_pocket.pdb
REMARK  219 active torsions:
REMARK  status: ('A' for Active; 'I' for Inactive)
REMARK    1  A    between atoms: _1  and  _3
REMARK    2  A    between atoms: _3  and  _4
REMARK    3  A    between atoms: _3  and  _6
REMARK    4  A    between atoms: _9  and  _11
REMARK    5  A    between atoms: _11  and  _12
REMARK    6  A    between atoms: _11  and  _14
REMARK    7  A    between atoms: _14  and  _15
REMARK    8  A    between atoms: _18  and  _20
REMARK    9  A    between atoms: _20  and  _21
REMARK   10  A    between atoms: _23  and  _25
REMARK   11  A    between atoms: _25  and  _26
REMARK   12  A    between atoms: _25  and  _28
REMARK   13  A    between atoms: _28  and  _29
REMARK   14  A    between atoms: _29  and  _30
REMARK   15  A    between atoms: _30  and  _31
REMARK   16  A    between atoms: _40  and  _42
REMARK   17  A    between atoms: _42  and  _43
REMARK   18  A    between atoms: _45  and  _47
REMARK   19  A    between atoms: _47  and  _48
REMARK   20  A    between atoms: _47  and  _50
REMARK   21  A    between atoms: _52  and  _54
REMARK   22  A    between atoms: _54  and  _55
REMARK   23  A    between atoms: _54  and  _57
REMARK   24  A    between atoms: _60  and  _62
REMARK   25  A    between atoms: _62  and  _63
REMARK   26  A    between atoms: _62  and  _65
REMARK   27  A    between atoms: _65  and  _66
REMARK   28  A    between atoms: _71  and  _72
REMARK   29  A    between atoms: _74  and  _76
REMARK   30  A    between atoms: _76  and  _77
REMARK   31  A    between atoms: _76  and  _79
REMARK   32  A    between atoms: _79  and  _80
REMARK   33  A    between atoms: _85  and  _87
REMARK   34  A    between atoms: _87  and  _88
REMARK   35  A    between atoms: _90  and  _92
REMARK   36  A    between atoms: _92  and  _93
REMARK   37  A    between atoms: _92  and  _95
REMARK   38  A    between atoms: _95  and  _96
REMARK   39  A    between atoms: _101  and  _103
REMARK   40  A    between atoms: _103  and  _104
REMARK   41  A    between atoms: _103  and  _106
REMARK   42  A    between atoms: _108  and  _110
REMARK   43  A    between atoms: _110  and  _111
REMARK   44  A    between atoms: _114  and  _116
REMARK   45  A    between atoms: _116  and  _117
REMARK   46  A    between atoms: _116  and  _119
REMARK   47  A    between atoms: _122  and  _124
REMARK   48  A    between atoms: _124  and  _125
REMARK   49  A    between atoms: _124  and  _127
REMARK   50  A    between atoms: _127  and  _128
REMARK   51  A    between atoms: _128  and  _129
REMARK   52  A    between atoms: _129  and  _130
REMARK   53  A    between atoms: _130  and  _131
REMARK   54  A    between atoms: _135  and  _137
REMARK   55  A    between atoms: _137  and  _138
REMARK   56  A    between atoms: _137  and  _140
REMARK   57  A    between atoms: _140  and  _141
REMARK   58  A    between atoms: _143  and  _145
REMARK   59  A    between atoms: _145  and  _146
REMARK   60  A    between atoms: _145  and  _148
REMARK   61  A    between atoms: _148  and  _149
REMARK   62  A    between atoms: _149  and  _150
REMARK   63  A    between atoms: _152  and  _154
REMARK   64  A    between atoms: _154  and  _155
REMARK   65  A    between atoms: _154  and  _157
REMARK   66  A    between atoms: _157  and  _158
REMARK   67  A    between atoms: _161  and  _163
REMARK   68  A    between atoms: _163  and  _164
REMARK   69  A    between atoms: _163  and  _166
REMARK   70  A    between atoms: _166  and  _167
REMARK   71  A    between atoms: _169  and  _171
REMARK   72  A    between atoms: _171  and  _172
REMARK   73  A    between atoms: _171  and  _174
REMARK   74  A    between atoms: _177  and  _179
REMARK   75  A    between atoms: _179  and  _180
REMARK   76  A    between atoms: _179  and  _182
REMARK   77  A    between atoms: _185  and  _187
REMARK   78  A    between atoms: _187  and  _188
REMARK   79  A    between atoms: _187  and  _190
REMARK   80  A    between atoms: _190  and  _191
REMARK   81  A    between atoms: _195  and  _196
REMARK   82  A    between atoms: _201  and  _203
REMARK   83  A    between atoms: _203  and  _204
REMARK   84  A    between atoms: _203  and  _206
REMARK   85  A    between atoms: _206  and  _207
REMARK   86  A    between atoms: _212  and  _213
REMARK   87  A    between atoms: _215  and  _217
REMARK   88  A    between atoms: _217  and  _218
REMARK   89  A    between atoms: _217  and  _220
REMARK   90  A    between atoms: _220  and  _221
REMARK   91  A    between atoms: _221  and  _222
REMARK   92  A    between atoms: _224  and  _226
REMARK   93  A    between atoms: _226  and  _227
REMARK   94  A    between atoms: _226  and  _229
REMARK   95  A    between atoms: _229  and  _230
REMARK   96  A    between atoms: _230  and  _231
REMARK   97  A    between atoms: _231  and  _232
REMARK   98  A    between atoms: _232  and  _233
REMARK   99  A    between atoms: _237  and  _239
REMARK  100  A    between atoms: _239  and  _240
REMARK  101  A    between atoms: _239  and  _242
REMARK  102  A    between atoms: _242  and  _243
REMARK  103  A    between atoms: _248  and  _250
REMARK  104  A    between atoms: _250  and  _251
REMARK  105  A    between atoms: _253  and  _255
REMARK  106  A    between atoms: _255  and  _256
REMARK  107  A    between atoms: _255  and  _258
REMARK  108  A    between atoms: _258  and  _259
REMARK  109  A    between atoms: _262  and  _264
REMARK  110  A    between atoms: _264  and  _265
REMARK  111  A    between atoms: _264  and  _267
REMARK  112  A    between atoms: _267  and  _268
REMARK  113  A    between atoms: _271  and  _273
REMARK  114  A    between atoms: _273  and  _274
REMARK  115  A    between atoms: _273  and  _276
REMARK  116  A    between atoms: _276  and  _277
REMARK  117  A    between atoms: _277  and  _278
REMARK  118  A    between atoms: _278  and  _279
REMARK  119  A    between atoms: _288  and  _290
REMARK  120  A    between atoms: _290  and  _291
REMARK  121  A    between atoms: _290  and  _293
REMARK  122  A    between atoms: _293  and  _294
REMARK  123  A    between atoms: _299  and  _301
REMARK  124  A    between atoms: _301  and  _302
REMARK  125  A    between atoms: _301  and  _304
REMARK  126  A    between atoms: _304  and  _305
REMARK  127  A    between atoms: _311  and  _313
REMARK  128  A    between atoms: _313  and  _314
REMARK  129  A    between atoms: _313  and  _316
REMARK  130  A    between atoms: _316  and  _317
REMARK  131  A    between atoms: _322  and  _324
REMARK  132  A    between atoms: _324  and  _325
REMARK  133  A    between atoms: _324  and  _327
REMARK  134  A    between atoms: _327  and  _328
REMARK  135  A    between atoms: _331  and  _333
REMARK  136  A    between atoms: _333  and  _334
REMARK  137  A    between atoms: _337  and  _339
REMARK  138  A    between atoms: _339  and  _340
REMARK  139  A    between atoms: _343  and  _345
REMARK  140  A    between atoms: _345  and  _346
REMARK  141  A    between atoms: _345  and  _348
REMARK  142  A    between atoms: _348  and  _349
REMARK  143  A    between atoms: _349  and  _350
REMARK  144  A    between atoms: _350  and  _351
REMARK  145  A    between atoms: _360  and  _362
REMARK  146  A    between atoms: _362  and  _363
REMARK  147  A    between atoms: _362  and  _365
REMARK  148  A    between atoms: _365  and  _366
REMARK  149  A    between atoms: _371  and  _373
REMARK  150  A    between atoms: _373  and  _374
REMARK  151  A    between atoms: _373  and  _376
REMARK  152  A    between atoms: _378  and  _380
REMARK  153  A    between atoms: _380  and  _381
REMARK  154  A    between atoms: _380  and  _383
REMARK  155  A    between atoms: _383  and  _384
REMARK  156  A    between atoms: _384  and  _385
REMARK  157  A    between atoms: _387  and  _389
REMARK  158  A    between atoms: _389  and  _390
REMARK  159  A    between atoms: _389  and  _392
REMARK  160  A    between atoms: _392  and  _393
REMARK  161  A    between atoms: _396  and  _398
REMARK  162  A    between atoms: _398  and  _399
REMARK  163  A    between atoms: _398  and  _401
REMARK  164  A    between atoms: _401  and  _402
REMARK  165  A    between atoms: _405  and  _407
REMARK  166  A    between atoms: _407  and  _408
REMARK  167  A    between atoms: _407  and  _410
REMARK  168  A    between atoms: _410  and  _411
REMARK  169  A    between atoms: _411  and  _412
REMARK  170  A    between atoms: _412  and  _413
REMARK  171  A    between atoms: _413  and  _414
REMARK  172  A    between atoms: _418  and  _420
REMARK  173  A    between atoms: _420  and  _421
REMARK  174  A    between atoms: _420  and  _423
REMARK  175  A    between atoms: _426  and  _428
REMARK  176  A    between atoms: _428  and  _429
REMARK  177  A    between atoms: _432  and  _434
REMARK  178  A    between atoms: _434  and  _435
REMARK  179  A    between atoms: _434  and  _437
REMARK  180  A    between atoms: _437  and  _438
REMARK  181  A    between atoms: _441  and  _443
REMARK  182  A    between atoms: _443  and  _444
REMARK  183  A    between atoms: _443  and  _446
REMARK  184  A    between atoms: _446  and  _447
REMARK  185  A    between atoms: _453  and  _455
REMARK  186  A    between atoms: _455  and  _456
REMARK  187  A    between atoms: _455  and  _458
REMARK  188  A    between atoms: _458  and  _459
REMARK  189  A    between atoms: _462  and  _464
REMARK  190  A    between atoms: _464  and  _465
REMARK  191  A    between atoms: _468  and  _470
REMARK  192  A    between atoms: _470  and  _471
REMARK  193  A    between atoms: _470  and  _473
REMARK  194  A    between atoms: _473  and  _474
REMARK  195  A    between atoms: _474  and  _475
REMARK  196  A    between atoms: _475  and  _476
REMARK  197  A    between atoms: _485  and  _487
REMARK  198  A    between atoms: _487  and  _488
REMARK  199  A    between atoms: _487  and  _490
REMARK  200  A    between atoms: _490  and  _491
REMARK  201  A    between atoms: _494  and  _496
REMARK  202  A    between atoms: _496  and  _497
REMARK  203  A    between atoms: _496  and  _499
REMARK  204  A    between atoms: _499  and  _500
REMARK  205  A    between atoms: _500  and  _501
REMARK  206  A    between atoms: _503  and  _505
REMARK  207  A    between atoms: _505  and  _506
REMARK  208  A    between atoms: _505  and  _508
REMARK  209  A    between atoms: _508  and  _509
REMARK  210  A    between atoms: _514  and  _515
REMARK  211  A    between atoms: _517  and  _519
REMARK  212  A    between atoms: _519  and  _520
REMARK  213  A    between atoms: _519  and  _522
REMARK  214  A    between atoms: _522  and  _523
REMARK  215  A    between atoms: _526  and  _528
REMARK  216  A    between atoms: _528  and  _529
REMARK  217  A    between atoms: _528  and  _531
REMARK  218  A    between atoms: _531  and  _532
REMARK  219  A    between atoms: _537  and  _538
REMARK                            x       y       z     vdW  Elec       q    Type
REMARK                         _______ _______ _______ _____ _____    ______ ____
ROOT
ATOM      1  CA  ASP A   1      10.294  76.389  10.837  0.00  0.00    +0.144 C 
ENDROOT
BRANCH   1   2
ATOM      2  N   ASP A   1       9.918  76.529  12.244  0.00  0.00    -0.239 NA
ATOM      3  H   ASP A   1      10.627  76.822  12.946  0.00  0.00    +0.142 HD
ENDBRANCH   1   2
BRANCH   1   4
ATOM      4  C   ASP A   1      11.708  75.846  10.667  0.00  0.00    +0.225 C 
ATOM      5  O   ASP A   1      12.488  76.359   9.870  0.00  0.00    -0.287 OA
ENDBRANCH   1   4
BRANCH   1   6
ATOM      6  CB  ASP A   1      10.161  77.739  10.122  0.00  0.00    +0.139 C 
BRANCH   6   7
ATOM      7  CG  ASP A   1      10.174  77.611   8.606  0.00  0.00    +0.367 C 
ATOM      8  OD2 ASP A   1      10.103  76.476   8.078  0.00  0.00    -0.246 OA
ATOM      9  OD1 ASP A   1      10.254  78.664   7.935  0.00  0.00    -0.246 OA
ENDBRANCH   6   7
ENDBRANCH   1   6
TORSDOF 4
REMARK  Name = ../refined-set-2016/3zcl/3zcl_pocket.pdb
REMARK  219 active torsions:
REMARK  status: ('A' for Active; 'I' for Inactive)
REMARK    1  A    between atoms: _1  and  _3
REMARK    2  A    between atoms: _3  and  _4
REMARK    3  A    between atoms: _3  and  _6
REMARK    4  A    between atoms: _9  and  _11
REMARK    5  A    between atoms: _11  and  _12
REMARK    6  A    between atoms: _11  and  _14
REMARK    7  A    between atoms: _14  and  _15
REMARK    8  A    between atoms: _18  and  _20
REMARK    9  A    between atoms: _20  and  _21
REMARK   10  A    between atoms: _23  and  _25
REMARK   11  A    between atoms: _25  and  _26
REMARK   12  A    between atoms: _25  and  _28
REMARK   13  A    between atoms: _28  and  _29
REMARK   14  A    between atoms: _29  and  _30
REMARK   15  A    between atoms: _30  and  _31
REMARK   16  A    between atoms: _40  and  _42
REMARK   17  A    between atoms: _42  and  _43
REMARK   18  A    between atoms: _45  and  _47
REMARK   19  A    between atoms: _47  and  _48
REMARK   20  A    between atoms: _47  and  _50
REMARK   21  A    between atoms: _52  and  _54
REMARK   22  A    between atoms: _54  and  _55
REMARK   23  A    between atoms: _54  and  _57
REMARK   24  A    between atoms: _60  and  _62
REMARK   25  A    between atoms: _62  and  _63
REMARK   26  A    between atoms: _62  and  _65
REMARK   27  A    between atoms: _65  and  _66
REMARK   28  A    between atoms: _71  and  _72
REMARK   29  A    between atoms: _74  and  _76
REMARK   30  A    between atoms: _76  and  _77
REMARK   31  A    between atoms: _76  and  _79
REMARK   32  A    between atoms: _79  and  _80
REMARK   33  A    between atoms: _85  and  _87
REMARK   34  A    between atoms: _87  and  _88
REMARK   35  A    between atoms: _90  and  _92
REMARK   36  A    between atoms: _92  and  _93
REMARK   37  A    between atoms: _92  and  _95
REMARK   38  A    between atoms: _95  and  _96
REMARK   39  A    between atoms: _101  and  _103
REMARK   40  A    between atoms: _103  and  _104
REMARK   41  A    between atoms: _103  and  _106
REMARK   42  A    between atoms: _108  and  _110
REMARK   43  A    between atoms: _110  and  _111
REMARK   44  A    between atoms: _114  and  _116
REMARK   45  A    between atoms: _116  and  _117
REMARK   46  A    between atoms: _116  and  _119
REMARK   47  A    between atoms: _122  and  _124
REMARK   48  A    between atoms: _124  and  _125
REMARK   49  A    between atoms: _124  and  _127
REMARK   50  A    between atoms: _127  and  _128
REMARK   51  A    between atoms: _128  and  _129
REMARK   52  A    between atoms: _129  and  _130
REMARK   53  A    between atoms: _130  and  _131
REMARK   54  A    between atoms: _135  and  _137
REMARK   55  A    between atoms: _137  and  _138
REMARK   56  A    between atoms: _137  and  _140
REMARK   57  A    between atoms: _140  and  _141
REMARK   58  A    between atoms: _143  and  _145
REMARK   59  A    between atoms: _145  and  _146
REMARK   60  A    between atoms: _145  and  _148
REMARK   61  A    between atoms: _148  and  _149
REMARK   62  A    between atoms: _149  and  _150
REMARK   63  A    between atoms: _152  and  _154
REMARK   64  A    between atoms: _154  and  _155
REMARK   65  A    between atoms: _154  and  _157
REMARK   66  A    between atoms: _157  and  _158
REMARK   67  A    between atoms: _161  and  _163
REMARK   68  A    between atoms: _163  and  _164
REMARK   69  A    between atoms: _163  and  _166
REMARK   70  A    between atoms: _166  and  _167
REMARK   71  A    between atoms: _169  and  _171
REMARK   72  A    between atoms: _171  and  _172
REMARK   73  A    between atoms: _171  and  _174
REMARK   74  A    between atoms: _177  and  _179
REMARK   75  A    between atoms: _179  and  _180
REMARK   76  A    between atoms: _179  and  _182
REMARK   77  A    between atoms: _185  and  _187
REMARK   78  A    between atoms: _187  and  _188
REMARK   79  A    between atoms: _187  and  _190
REMARK   80  A    between atoms: _190  and  _191
REMARK   81  A    between atoms: _195  and  _196
REMARK   82  A    between atoms: _201  and  _203
REMARK   83  A    between atoms: _203  and  _204
REMARK   84  A    between atoms: _203  and  _206
REMARK   85  A    between atoms: _206  and  _207
REMARK   86  A    between atoms: _212  and  _213
REMARK   87  A    between atoms: _215  and  _217
REMARK   88  A    between atoms: _217  and  _218
REMARK   89  A    between atoms: _217  and  _220
REMARK   90  A    between atoms: _220  and  _221
REMARK   91  A    between atoms: _221  and  _222
REMARK   92  A    between atoms: _224  and  _226
REMARK   93  A    between atoms: _226  and  _227
REMARK   94  A    between atoms: _226  and  _229
REMARK   95  A    between atoms: _229  and  _230
REMARK   96  A    between atoms: _230  and  _231
REMARK   97  A    between atoms: _231  and  _232
REMARK   98  A    between atoms: _232  and  _233
REMARK   99  A    between atoms: _237  and  _239
REMARK  100  A    between atoms: _239  and  _240
REMARK  101  A    between atoms: _239  and  _242
REMARK  102  A    between atoms: _242  and  _243
REMARK  103  A    between atoms: _248  and  _250
REMARK  104  A    between atoms: _250  and  _251
REMARK  105  A    between atoms: _253  and  _255
REMARK  106  A    between atoms: _255  and  _256
REMARK  107  A    between atoms: _255  and  _258
REMARK  108  A    between atoms: _258  and  _259
REMARK  109  A    between atoms: _262  and  _264
REMARK  110  A    between atoms: _264  and  _265
REMARK  111  A    between atoms: _264  and  _267
REMARK  112  A    between atoms: _267  and  _268
REMARK  113  A    between atoms: _271  and  _273
REMARK  114  A    between atoms: _273  and  _274
REMARK  115  A    between atoms: _273  and  _276
REMARK  116  A    between atoms: _276  and  _277
REMARK  117  A    between atoms: _277  and  _278
REMARK  118  A    between atoms: _278  and  _279
REMARK  119  A    between atoms: _288  and  _290
REMARK  120  A    between atoms: _290  and  _291
REMARK  121  A    between atoms: _290  and  _293
REMARK  122  A    between atoms: _293  and  _294
REMARK  123  A    between atoms: _299  and  _301
REMARK  124  A    between atoms: _301  and  _302
REMARK  125  A    between atoms: _301  and  _304
REMARK  126  A    between atoms: _304  and  _305
REMARK  127  A    between atoms: _311  and  _313
REMARK  128  A    between atoms: _313  and  _314
REMARK  129  A    between atoms: _313  and  _316
REMARK  130  A    between atoms: _316  and  _317
REMARK  131  A    between atoms: _322  and  _324
REMARK  132  A    between atoms: _324  and  _325
REMARK  133  A    between atoms: _324  and  _327
REMARK  134  A    between atoms: _327  and  _328
REMARK  135  A    between atoms: _331  and  _333
REMARK  136  A    between atoms: _333  and  _334
REMARK  137  A    between atoms: _337  and  _339
REMARK  138  A    between atoms: _339  and  _340
REMARK  139  A    between atoms: _343  and  _345
REMARK  140  A    between atoms: _345  and  _346
REMARK  141  A    between atoms: _345  and  _348
REMARK  142  A    between atoms: _348  and  _349
REMARK  143  A    between atoms: _349  and  _350
REMARK  144  A    between atoms: _350  and  _351
REMARK  145  A    between atoms: _360  and  _362
REMARK  146  A    between atoms: _362  and  _363
REMARK  147  A    between atoms: _362  and  _365
REMARK  148  A    between atoms: _365  and  _366
REMARK  149  A    between atoms: _371  and  _373
REMARK  150  A    between atoms: _373  and  _374
REMARK  151  A    between atoms: _373  and  _376
REMARK  152  A    between atoms: _378  and  _380
REMARK  153  A    between atoms: _380  and  _381
REMARK  154  A    between atoms: _380  and  _383
REMARK  155  A    between atoms: _383  and  _384
REMARK  156  A    between atoms: _384  and  _385
REMARK  157  A    between atoms: _387  and  _389
REMARK  158  A    between atoms: _389  and  _390
REMARK  159  A    between atoms: _389  and  _392
REMARK  160  A    between atoms: _392  and  _393
REMARK  161  A    between atoms: _396  and  _398
REMARK  162  A    between atoms: _398  and  _399
REMARK  163  A    between atoms: _398  and  _401
REMARK  164  A    between atoms: _401  and  _402
REMARK  165  A    between atoms: _405  and  _407
REMARK  166  A    between atoms: _407  and  _408
REMARK  167  A    between atoms: _407  and  _410
REMARK  168  A    between atoms: _410  and  _411
REMARK  169  A    between atoms: _411  and  _412
REMARK  170  A    between atoms: _412  and  _413
REMARK  171  A    between atoms: _413  and  _414
REMARK  172  A    between atoms: _418  and  _420
REMARK  173  A    between atoms: _420  and  _421
REMARK  174  A    between atoms: _420  and  _423
REMARK  175  A    between atoms: _426  and  _428
REMARK  176  A    between atoms: _428  and  _429
REMARK  177  A    between atoms: _432  and  _434
REMARK  178  A    between atoms: _434  and  _435
REMARK  179  A    between atoms: _434  and  _437
REMARK  180  A    between atoms: _437  and  _438
REMARK  181  A    between atoms: _441  and  _443
REMARK  182  A    between atoms: _443  and  _444
REMARK  183  A    between atoms: _443  and  _446
REMARK  184  A    between atoms: _446  and  _447
REMARK  185  A    between atoms: _453  and  _455
REMARK  186  A    between atoms: _455  and  _456
REMARK  187  A    between atoms: _455  and  _458
REMARK  188  A    between atoms: _458  and  _459
REMARK  189  A    between atoms: _462  and  _464
REMARK  190  A    between atoms: _464  and  _465
REMARK  191  A    between atoms: _468  and  _470
REMARK  192  A    between atoms: _470  and  _471
REMARK  193  A    between atoms: _470  and  _473
REMARK  194  A    between atoms: _473  and  _474
REMARK  195  A    between atoms: _474  and  _475
REMARK  196  A    between atoms: _475  and  _476
REMARK  197  A    between atoms: _485  and  _487
REMARK  198  A    between atoms: _487  and  _488
REMARK  199  A    between atoms: _487  and  _490
REMARK  200  A    between atoms: _490  and  _491
REMARK  201  A    between atoms: _494  and  _496
REMARK  202  A    between atoms: _496  and  _497
REMARK  203  A    between atoms: _496  and  _499
REMARK  204  A    between atoms: _499  and  _500
REMARK  205  A    between atoms: _500  and  _501
REMARK  206  A    between atoms: _503  and  _505
REMARK  207  A    between atoms: _505  and  _506
REMARK  208  A    between atoms: _505  and  _508
REMARK  209  A    between atoms: _508  and  _509
REMARK  210  A    between atoms: _514  and  _515
REMARK  211  A    between atoms: _517  and  _519
REMARK  212  A    between atoms: _519  and  _520
REMARK  213  A    between atoms: _519  and  _522
REMARK  214  A    between atoms: _522  and  _523
REMARK  215  A    between atoms: _526  and  _528
REMARK  216  A    between atoms: _528  and  _529
REMARK  217  A    between atoms: _528  and  _531
REMARK  218  A    between atoms: _531  and  _532
REMARK  219  A    between atoms: _537  and  _538
REMARK                            x       y       z     vdW  Elec       q    Type
REMARK                         _______ _______ _______ _____ _____    ______ ____
ROOT
ATOM      1  CA  ASN A   4      16.880  77.793   7.471  0.00  0.00    +0.158 C 
ENDROOT
BRANCH   1   2
ATOM      2  C   ASN A   4      18.000  77.689   8.491  0.00  0.00    +0.241 C 
ATOM      3  O   ASN A   4      17.967  78.345   9.533  0.00  0.00    -0.273 OA
ATOM      4  N   CYS A   5      18.990  76.860   8.189  0.00  0.00    -0.296 N 
ATOM      5  H   CYS A   5      18.875  76.199   7.394  0.00  0.00    +0.150 HD
BRANCH   4   6
ATOM      6  CA  CYS A   5      20.233  76.854   8.945  0.00  0.00    +0.160 C 
BRANCH   6   7
ATOM      7  C   CYS A   5      21.336  77.416   8.062  0.00  0.00    +0.242 C 
ATOM      8  N   MET A   6      22.330  78.041   8.681  0.00  0.00    -0.297 N 
ATOM      9  H   MET A   6      22.345  78.085   9.720  0.00  0.00    +0.150 HD
ATOM     10  O   CYS A   5      21.285  77.296   6.838  0.00  0.00    -0.273 OA
BRANCH   8  11
ATOM     11  CA  MET A   6      23.400  78.665   7.916  0.00  0.00    +0.149 C 
BRANCH  11  12
ATOM     12  C   MET A   6      24.770  78.208   8.389  0.00  0.00    +0.241 C 
ATOM     13  O   MET A   6      24.902  77.608   9.456  0.00  0.00    -0.273 OA
ATOM     14  N   LEU A   7      25.784  78.474   7.573  0.00  0.00    -0.297 N 
ATOM     15  H   LEU A   7      25.597  78.994   6.692  0.00  0.00    +0.150 HD
BRANCH  14  16
ATOM     16  CA  LEU A   7      27.154  78.060   7.872  0.00  0.00    +0.149 C 
BRANCH  16  17
ATOM     17  C   LEU A   7      28.071  79.272   7.843  0.00  0.00    +0.241 C 
ATOM     18  N   ASP A   8      28.808  79.499   8.926  0.00  0.00    -0.298 N 
ATOM     19  H   ASP A   8      28.735  78.867   9.749  0.00  0.00    +0.150 HD
ATOM     20  O   LEU A   7      28.121  79.988   6.844  0.00  0.00    -0.273 OA
BRANCH  18  21
ATOM     21  CA  ASP A   8      29.719  80.636   8.956  0.00  0.00    +0.148 C 
BRANCH  21  22
ATOM     22  C   ASP A   8      31.086  80.271   8.387  0.00  0.00    +0.227 C 
ATOM     23  O   ASP A   8      31.265  79.180   7.839  0.00  0.00    -0.286 OA
ENDBRANCH  21  22
BRANCH  21  24
ATOM     24  CB  ASP A   8      29.846  81.201  10.383  0.00  0.00    +0.142 C 
BRANCH  24  25
ATOM     25  CG  ASP A   8      30.663  80.319  11.320  0.00  0.00    +0.367 C 
ATOM     26  OD2 ASP A   8      30.701  80.646  12.525  0.00  0.00    -0.246 OA
ATOM     27  OD1 ASP A   8      31.265  79.315  10.881  0.00  0.00    -0.246 OA
ENDBRANCH  24  25
ENDBRANCH  21  24
ENDBRANCH  18  21
ENDBRANCH  16  17
BRANCH  16  28
ATOM     28  CB  LEU A   7      27.644  77.048   6.832  0.00  0.00    +0.029 C 
BRANCH  28  29
ATOM     29  CG  LEU A   7      27.358  75.564   7.051  0.00  0.00    +0.002 C 
ATOM     30  CD2 LEU A   7      28.076  75.076   8.301  0.00  0.00    +0.000 C 
ATOM     31  CD1 LEU A   7      27.837  74.780   5.836  0.00  0.00    +0.000 C 
ENDBRANCH  28  29
ENDBRANCH  16  28
ENDBRANCH  14  16
ENDBRANCH  11  12
BRANCH  11  32
ATOM     32  CB  MET A   6      23.281  80.184   8.014  0.00  0.00    +0.041 C 
BRANCH  32  33
ATOM     33  CG  MET A   6      21.883  80.686   7.686  0.00  0.00    +0.060 C 
BRANCH  33  34
ATOM     34  SD  MET A   6      21.836  82.400   7.159  0.00  0.00    -0.139 S 
ATOM     35  CE  MET A   6      22.703  82.292   5.602  0.00  0.00    +0.069 C 
ENDBRANCH  33  34
ENDBRANCH  32  33
ENDBRANCH  11  32
ENDBRANCH   8  11
ENDBRANCH   6   7
BRANCH   6  36
ATOM     36  CB  CYS A   5      20.581  75.430   9.384  0.00  0.00    +0.098 C 
ATOM     37  SG  CYS A   5      19.365  74.712  10.506  0.00  0.00    -0.080 S 
ENDBRANCH   6  36
ENDBRANCH   4   6
ENDBRANCH   1   2
BRANCH   1  39
ATOM     38  C   ARG A   3      17.284  77.091   5.173  0.00  0.00    +0.241 C 
ATOM     39  N   ASN A   4      16.969  76.776   6.425  0.00  0.00    -0.297 N 
ATOM     40  H   ASN A   4      16.781  75.782   6.666  0.00  0.00    +0.150 HD
ATOM     41  O   ARG A   3      17.648  78.216   4.836  0.00  0.00    -0.273 OA
BRANCH  38  42
ATOM     42  CA  ARG A   3      17.166  75.978   4.136  0.00  0.00    +0.149 C 
BRANCH  42  45
ATOM     43  C   ALA A   2      18.147  74.170   5.446  0.00  0.00    +0.241 C 
ATOM     44  O   ALA A   2      19.203  74.787   5.586  0.00  0.00    -0.273 OA
ATOM     45  N   ARG A   3      17.109  74.661   4.771  0.00  0.00    -0.297 N 
ATOM     46  H   ARG A   3      16.239  74.096   4.694  0.00  0.00    +0.150 HD
BRANCH  43  47
ATOM     47  CA  ALA A   2      17.968  72.786   6.077  0.00  0.00    +0.149 C 
ATOM     48  CB  ALA A   2      18.412  71.703   5.100  0.00  0.00    +0.031 C 
BRANCH  47  51
ATOM     49  C   ALA A   1      16.030  73.328   7.422  0.00  0.00    +0.238 C 
ATOM     50  O   ALA A   1      16.615  74.291   7.918  0.00  0.00    -0.274 OA
ATOM     51  N   ALA A   2      16.590  72.548   6.501  0.00  0.00    -0.297 N 
ATOM     52  H   ALA A   2      16.046  71.767   6.082  0.00  0.00    +0.150 HD
BRANCH  49  53
ATOM     53  CA  ALA A   1      14.611  72.991   7.860  0.00  0.00    +0.145 C 
ATOM     54  CB  ALA A   1      13.614  73.573   6.868  0.00  0.00    +0.028 C 
BRANCH  53  55
ATOM     55  N   ALA A   1      14.434  73.599   9.178  0.00  0.00    -0.238 NA
ATOM     56  H   ALA A   1      15.174  74.239   9.530  0.00  0.00    +0.142 HD
ENDBRANCH  53  55
ENDBRANCH  49  53
ENDBRANCH  47  51
ENDBRANCH  43  47
ENDBRANCH  42  45
BRANCH  42  57
ATOM     57  CB  ARG A   3      15.910  76.224   3.290  0.00  0.00    +0.033 C 
BRANCH  57  58
ATOM     58  CG  ARG A   3      14.642  76.305   4.119  0.00  0.00    +0.045 C 
BRANCH  58  59
ATOM     59  CD  ARG A   3      13.391  76.608   3.300  0.00  0.00    +0.174 C 
BRANCH  59  60
ATOM     60  NE  ARG A   3      12.222  76.436   4.155  0.00  0.00    -0.265 N 
ATOM     61  HE  ARG A   3      11.875  77.262   4.683  0.00  0.00    +0.259 HD
ATOM     62  CZ  ARG A   3      11.576  75.286   4.298  0.00  0.00    +0.342 C 
ATOM     63  NH2 ARG A   3      10.582  75.186   5.171  0.00  0.00    -0.292 N 
ATOM     64 HH21 ARG A   3      10.308  76.010   5.744  0.00  0.00    +0.255 HD
ATOM     65 HH22 ARG A   3      10.076  74.284   5.282  0.00  0.00    +0.255 HD
ATOM     66  NH1 ARG A   3      11.972  74.214   3.621  0.00  0.00    -0.292 N 
ATOM     67 HH11 ARG A   3      11.466  73.312   3.733  0.00  0.00    +0.255 HD
ATOM     68 HH12 ARG A   3      12.788  74.276   2.979  0.00  0.00    +0.255 HD
ENDBRANCH  59  60
ENDBRANCH  58  59
ENDBRANCH  57  58
ENDBRANCH  42  57
ENDBRANCH  38  42
ENDBRANCH   1  39
BRANCH   1  69
ATOM     69  CB  ASN A   4      15.522  77.700   8.164  0.00  0.00    +0.114 C 
BRANCH  69  70
ATOM     70  CG  ASN A   4      14.415  78.277   7.321  0.00  0.00    +0.222 C 
ATOM     71  ND2 ASN A   4      13.190  77.819   7.548  0.00  0.00    -0.329 N 
ATOM     72 HD21 ASN A   4      13.032  77.096   8.279  0.00  0.00    +0.145 HD
ATOM     73 HD22 ASN A   4      12.388  78.183   6.995  0.00  0.00    +0.145 HD
ATOM     74  OD1 ASN A   4      14.658  79.133   6.468  0.00  0.00    -0.275 OA
ENDBRANCH  69  70
ENDBRANCH   1  69
TORSDOF 30
REMARK  Name = ../refined-set-2016/3zcl/3zcl_pocket.pdb
REMARK  219 active torsions:
REMARK  status: ('A' for Active; 'I' for Inactive)
REMARK    1  A    between atoms: _1  and  _3
REMARK    2  A    between atoms: _3  and  _4
REMARK    3  A    between atoms: _3  and  _6
REMARK    4  A    between atoms: _9  and  _11
REMARK    5  A    between atoms: _11  and  _12
REMARK    6  A    between atoms: _11  and  _14
REMARK    7  A    between atoms: _14  and  _15
REMARK    8  A    between atoms: _18  and  _20
REMARK    9  A    between atoms: _20  and  _21
REMARK   10  A    between atoms: _23  and  _25
REMARK   11  A    between atoms: _25  and  _26
REMARK   12  A    between atoms: _25  and  _28
REMARK   13  A    between atoms: _28  and  _29
REMARK   14  A    between atoms: _29  and  _30
REMARK   15  A    between atoms: _30  and  _31
REMARK   16  A    between atoms: _40  and  _42
REMARK   17  A    between atoms: _42  and  _43
REMARK   18  A    between atoms: _45  and  _47
REMARK   19  A    between atoms: _47  and  _48
REMARK   20  A    between atoms: _47  and  _50
REMARK   21  A    between atoms: _52  and  _54
REMARK   22  A    between atoms: _54  and  _55
REMARK   23  A    between atoms: _54  and  _57
REMARK   24  A    between atoms: _60  and  _62
REMARK   25  A    between atoms: _62  and  _63
REMARK   26  A    between atoms: _62  and  _65
REMARK   27  A    between atoms: _65  and  _66
REMARK   28  A    between atoms: _71  and  _72
REMARK   29  A    between atoms: _74  and  _76
REMARK   30  A    between atoms: _76  and  _77
REMARK   31  A    between atoms: _76  and  _79
REMARK   32  A    between atoms: _79  and  _80
REMARK   33  A    between atoms: _85  and  _87
REMARK   34  A    between atoms: _87  and  _88
REMARK   35  A    between atoms: _90  and  _92
REMARK   36  A    between atoms: _92  and  _93
REMARK   37  A    between atoms: _92  and  _95
REMARK   38  A    between atoms: _95  and  _96
REMARK   39  A    between atoms: _101  and  _103
REMARK   40  A    between atoms: _103  and  _104
REMARK   41  A    between atoms: _103  and  _106
REMARK   42  A    between atoms: _108  and  _110
REMARK   43  A    between atoms: _110  and  _111
REMARK   44  A    between atoms: _114  and  _116
REMARK   45  A    between atoms: _116  and  _117
REMARK   46  A    between atoms: _116  and  _119
REMARK   47  A    between atoms: _122  and  _124
REMARK   48  A    between atoms: _124  and  _125
REMARK   49  A    between atoms: _124  and  _127
REMARK   50  A    between atoms: _127  and  _128
REMARK   51  A    between atoms: _128  and  _129
REMARK   52  A    between atoms: _129  and  _130
REMARK   53  A    between atoms: _130  and  _131
REMARK   54  A    between atoms: _135  and  _137
REMARK   55  A    between atoms: _137  and  _138
REMARK   56  A    between atoms: _137  and  _140
REMARK   57  A    between atoms: _140  and  _141
REMARK   58  A    between atoms: _143  and  _145
REMARK   59  A    between atoms: _145  and  _146
REMARK   60  A    between atoms: _145  and  _148
REMARK   61  A    between atoms: _148  and  _149
REMARK   62  A    between atoms: _149  and  _150
REMARK   63  A    between atoms: _152  and  _154
REMARK   64  A    between atoms: _154  and  _155
REMARK   65  A    between atoms: _154  and  _157
REMARK   66  A    between atoms: _157  and  _158
REMARK   67  A    between atoms: _161  and  _163
REMARK   68  A    between atoms: _163  and  _164
REMARK   69  A    between atoms: _163  and  _166
REMARK   70  A    between atoms: _166  and  _167
REMARK   71  A    between atoms: _169  and  _171
REMARK   72  A    between atoms: _171  and  _172
REMARK   73  A    between atoms: _171  and  _174
REMARK   74  A    between atoms: _177  and  _179
REMARK   75  A    between atoms: _179  and  _180
REMARK   76  A    between atoms: _179  and  _182
REMARK   77  A    between atoms: _185  and  _187
REMARK   78  A    between atoms: _187  and  _188
REMARK   79  A    between atoms: _187  and  _190
REMARK   80  A    between atoms: _190  and  _191
REMARK   81  A    between atoms: _195  and  _196
REMARK   82  A    between atoms: _201  and  _203
REMARK   83  A    between atoms: _203  and  _204
REMARK   84  A    between atoms: _203  and  _206
REMARK   85  A    between atoms: _206  and  _207
REMARK   86  A    between atoms: _212  and  _213
REMARK   87  A    between atoms: _215  and  _217
REMARK   88  A    between atoms: _217  and  _218
REMARK   89  A    between atoms: _217  and  _220
REMARK   90  A    between atoms: _220  and  _221
REMARK   91  A    between atoms: _221  and  _222
REMARK   92  A    between atoms: _224  and  _226
REMARK   93  A    between atoms: _226  and  _227
REMARK   94  A    between atoms: _226  and  _229
REMARK   95  A    between atoms: _229  and  _230
REMARK   96  A    between atoms: _230  and  _231
REMARK   97  A    between atoms: _231  and  _232
REMARK   98  A    between atoms: _232  and  _233
REMARK   99  A    between atoms: _237  and  _239
REMARK  100  A    between atoms: _239  and  _240
REMARK  101  A    between atoms: _239  and  _242
REMARK  102  A    between atoms: _242  and  _243
REMARK  103  A    between atoms: _248  and  _250
REMARK  104  A    between atoms: _250  and  _251
REMARK  105  A    between atoms: _253  and  _255
REMARK  106  A    between atoms: _255  and  _256
REMARK  107  A    between atoms: _255  and  _258
REMARK  108  A    between atoms: _258  and  _259
REMARK  109  A    between atoms: _262  and  _264
REMARK  110  A    between atoms: _264  and  _265
REMARK  111  A    between atoms: _264  and  _267
REMARK  112  A    between atoms: _267  and  _268
REMARK  113  A    between atoms: _271  and  _273
REMARK  114  A    between atoms: _273  and  _274
REMARK  115  A    between atoms: _273  and  _276
REMARK  116  A    between atoms: _276  and  _277
REMARK  117  A    between atoms: _277  and  _278
REMARK  118  A    between atoms: _278  and  _279
REMARK  119  A    between atoms: _288  and  _290
REMARK  120  A    between atoms: _290  and  _291
REMARK  121  A    between atoms: _290  and  _293
REMARK  122  A    between atoms: _293  and  _294
REMARK  123  A    between atoms: _299  and  _301
REMARK  124  A    between atoms: _301  and  _302
REMARK  125  A    between atoms: _301  and  _304
REMARK  126  A    between atoms: _304  and  _305
REMARK  127  A    between atoms: _311  and  _313
REMARK  128  A    between atoms: _313  and  _314
REMARK  129  A    between atoms: _313  and  _316
REMARK  130  A    between atoms: _316  and  _317
REMARK  131  A    between atoms: _322  and  _324
REMARK  132  A    between atoms: _324  and  _325
REMARK  133  A    between atoms: _324  and  _327
REMARK  134  A    between atoms: _327  and  _328
REMARK  135  A    between atoms: _331  and  _333
REMARK  136  A    between atoms: _333  and  _334
REMARK  137  A    between atoms: _337  and  _339
REMARK  138  A    between atoms: _339  and  _340
REMARK  139  A    between atoms: _343  and  _345
REMARK  140  A    between atoms: _345  and  _346
REMARK  141  A    between atoms: _345  and  _348
REMARK  142  A    between atoms: _348  and  _349
REMARK  143  A    between atoms: _349  and  _350
REMARK  144  A    between atoms: _350  and  _351
REMARK  145  A    between atoms: _360  and  _362
REMARK  146  A    between atoms: _362  and  _363
REMARK  147  A    between atoms: _362  and  _365
REMARK  148  A    between atoms: _365  and  _366
REMARK  149  A    between atoms: _371  and  _373
REMARK  150  A    between atoms: _373  and  _374
REMARK  151  A    between atoms: _373  and  _376
REMARK  152  A    between atoms: _378  and  _380
REMARK  153  A    between atoms: _380  and  _381
REMARK  154  A    between atoms: _380  and  _383
REMARK  155  A    between atoms: _383  and  _384
REMARK  156  A    between atoms: _384  and  _385
REMARK  157  A    between atoms: _387  and  _389
REMARK  158  A    between atoms: _389  and  _390
REMARK  159  A    between atoms: _389  and  _392
REMARK  160  A    between atoms: _392  and  _393
REMARK  161  A    between atoms: _396  and  _398
REMARK  162  A    between atoms: _398  and  _399
REMARK  163  A    between atoms: _398  and  _401
REMARK  164  A    between atoms: _401  and  _402
REMARK  165  A    between atoms: _405  and  _407
REMARK  166  A    between atoms: _407  and  _408
REMARK  167  A    between atoms: _407  and  _410
REMARK  168  A    between atoms: _410  and  _411
REMARK  169  A    between atoms: _411  and  _412
REMARK  170  A    between atoms: _412  and  _413
REMARK  171  A    between atoms: _413  and  _414
REMARK  172  A    between atoms: _418  and  _420
REMARK  173  A    between atoms: _420  and  _421
REMARK  174  A    between atoms: _420  and  _423
REMARK  175  A    between atoms: _426  and  _428
REMARK  176  A    between atoms: _428  and  _429
REMARK  177  A    between atoms: _432  and  _434
REMARK  178  A    between atoms: _434  and  _435
REMARK  179  A    between atoms: _434  and  _437
REMARK  180  A    between atoms: _437  and  _438
REMARK  181  A    between atoms: _441  and  _443
REMARK  182  A    between atoms: _443  and  _444
REMARK  183  A    between atoms: _443  and  _446
REMARK  184  A    between atoms: _446  and  _447
REMARK  185  A    between atoms: _453  and  _455
REMARK  186  A    between atoms: _455  and  _456
REMARK  187  A    between atoms: _455  and  _458
REMARK  188  A    between atoms: _458  and  _459
REMARK  189  A    between atoms: _462  and  _464
REMARK  190  A    between atoms: _464  and  _465
REMARK  191  A    between atoms: _468  and  _470
REMARK  192  A    between atoms: _470  and  _471
REMARK  193  A    between atoms: _470  and  _473
REMARK  194  A    between atoms: _473  and  _474
REMARK  195  A    between atoms: _474  and  _475
REMARK  196  A    between atoms: _475  and  _476
REMARK  197  A    between atoms: _485  and  _487
REMARK  198  A    between atoms: _487  and  _488
REMARK  199  A    between atoms: _487  and  _490
REMARK  200  A    between atoms: _490  and  _491
REMARK  201  A    between atoms: _494  and  _496
REMARK  202  A    between atoms: _496  and  _497
REMARK  203  A    between atoms: _496  and  _499
REMARK  204  A    between atoms: _499  and  _500
REMARK  205  A    between atoms: _500  and  _501
REMARK  206  A    between atoms: _503  and  _505
REMARK  207  A    between atoms: _505  and  _506
REMARK  208  A    between atoms: _505  and  _508
REMARK  209  A    between atoms: _508  and  _509
REMARK  210  A    between atoms: _514  and  _515
REMARK  211  A    between atoms: _517  and  _519
REMARK  212  A    between atoms: _519  and  _520
REMARK  213  A    between atoms: _519  and  _522
REMARK  214  A    between atoms: _522  and  _523
REMARK  215  A    between atoms: _526  and  _528
REMARK  216  A    between atoms: _528  and  _529
REMARK  217  A    between atoms: _528  and  _531
REMARK  218  A    between atoms: _531  and  _532
REMARK  219  A    between atoms: _537  and  _538
REMARK                            x       y       z     vdW  Elec       q    Type
REMARK                         _______ _______ _______ _____ _____    ______ ____
ROOT
ATOM      1  CA  ALA A   3      18.563  80.625  11.869  0.00  0.00    +0.149 C 
ATOM      2  CB  ALA A   3      19.384  81.069  10.659  0.00  0.00    +0.031 C 
ENDROOT
BRANCH   1   3
ATOM      3  C   ALA A   3      17.071  80.743  11.573  0.00  0.00    +0.241 C 
ATOM      4  O   ALA A   3      16.280  79.915  12.011  0.00  0.00    -0.273 OA
ATOM      5  N   ASP A   4      16.686  81.783  10.842  0.00  0.00    -0.297 N 
ATOM      6  H   ASP A   4      17.402  82.446  10.483  0.00  0.00    +0.150 HD
BRANCH   5   7
ATOM      7  CA  ASP A   4      15.277  82.015  10.532  0.00  0.00    +0.160 C 
BRANCH   7   8
ATOM      8  C   ASP A   4      14.381  81.920  11.768  0.00  0.00    +0.241 C 
ATOM      9  N   PHE A   5      14.722  82.677  12.803  0.00  0.00    -0.298 N 
ATOM     10  H   PHE A   5      15.622  83.198  12.782  0.00  0.00    +0.150 HD
ATOM     11  O   ASP A   4      13.399  81.176  11.787  0.00  0.00    -0.273 OA
BRANCH   9  12
ATOM     12  CA  PHE A   5      13.855  82.789  13.967  0.00  0.00    +0.141 C 
BRANCH  12  13
ATOM     13  C   PHE A   5      14.007  84.183  14.557  0.00  0.00    +0.227 C 
ATOM     14  O   PHE A   5      14.935  84.918  14.211  0.00  0.00    -0.286 OA
ENDBRANCH  12  13
BRANCH  12  15
ATOM     15  CB  PHE A   5      14.211  81.730  15.022  0.00  0.00    +0.054 C 
BRANCH  15  16
ATOM     16  CG  PHE A   5      15.477  82.019  15.773  0.00  0.00    -0.020 A 
ATOM     17  CD2 PHE A   5      15.447  82.744  16.956  0.00  0.00    -0.004 A 
ATOM     18  CE2 PHE A   5      16.613  83.034  17.639  0.00  0.00    -0.000 A 
ATOM     19  CZ  PHE A   5      17.826  82.600  17.143  0.00  0.00    -0.000 A 
ATOM     20  CE1 PHE A   5      17.869  81.873  15.965  0.00  0.00    -0.000 A 
ATOM     21  CD1 PHE A   5      16.700  81.586  15.288  0.00  0.00    -0.004 A 
ENDBRANCH  15  16
ENDBRANCH  12  15
ENDBRANCH   9  12
ENDBRANCH   7   8
BRANCH   7  22
ATOM     22  CB  ASP A   4      14.784  81.018   9.475  0.00  0.00    +0.143 C 
BRANCH  22  23
ATOM     23  CG  ASP A   4      13.324  81.215   9.140  0.00  0.00    +0.367 C 
ATOM     24  OD2 ASP A   4      12.595  80.203   9.037  0.00  0.00    -0.246 OA
ATOM     25  OD1 ASP A   4      12.907  82.383   8.998  0.00  0.00    -0.246 OA
ENDBRANCH  22  23
ENDBRANCH   7  22
ENDBRANCH   5   7
ENDBRANCH   1   3
BRANCH   1  28
ATOM     26  C   VAL A   2      19.633  78.987  13.317  0.00  0.00    +0.241 C 
ATOM     27  O   VAL A   2      19.945  79.850  14.141  0.00  0.00    -0.273 OA
ATOM     28  N   ALA A   3      18.915  79.256  12.231  0.00  0.00    -0.297 N 
ATOM     29  H   ALA A   3      18.597  78.473  11.625  0.00  0.00    +0.150 HD
BRANCH  26  30
ATOM     30  CA  VAL A   2      20.082  77.540  13.499  0.00  0.00    +0.148 C 
BRANCH  30  32
ATOM     31  C   LYS A   1      22.314  77.973  12.665  0.00  0.00    +0.238 C 
ATOM     32  N   VAL A   2      21.535  77.547  13.653  0.00  0.00    -0.297 N 
ATOM     33  H   VAL A   2      21.962  77.216  14.542  0.00  0.00    +0.150 HD
ATOM     34  O   LYS A   1      21.899  78.142  11.523  0.00  0.00    -0.274 OA
BRANCH  31  35
ATOM     35  CA  LYS A   1      23.776  78.257  12.999  0.00  0.00    +0.145 C 
BRANCH  35  36
ATOM     36  N   LYS A   1      24.627  77.425  12.153  0.00  0.00    -0.238 NA
ATOM     37  H   LYS A   1      24.649  77.602  11.128  0.00  0.00    +0.142 HD
ENDBRANCH  35  36
BRANCH  35  38
ATOM     38  CB  LYS A   1      24.050  79.745  12.744  0.00  0.00    +0.026 C 
BRANCH  38  39
ATOM     39  CG  LYS A   1      25.514  80.163  12.792  0.00  0.00    -0.000 C 
BRANCH  39  40
ATOM     40  CD  LYS A   1      26.067  80.153  14.204  0.00  0.00    -0.024 C 
BRANCH  40  41
ATOM     41  CE  LYS A   1      27.486  80.712  14.238  0.00  0.00    -0.086 C 
BRANCH  41  42
ATOM     42  NZ  LYS A   1      28.018  80.776  15.625  0.00  0.00    +0.380 N 
ATOM     43  HZ1 LYS A   1      27.409  81.392  16.201  0.00  0.00    -0.089 HD
ATOM     44  HZ2 LYS A   1      28.032  79.820  16.034  0.00  0.00    -0.089 HD
ATOM     45  HZ3 LYS A   1      28.984  81.161  15.607  0.00  0.00    -0.089 HD
ENDBRANCH  41  42
ENDBRANCH  40  41
ENDBRANCH  39  40
ENDBRANCH  38  39
ENDBRANCH  35  38
ENDBRANCH  31  35
ENDBRANCH  30  32
BRANCH  30  46
ATOM     46  CB  VAL A   2      19.388  76.935  14.742  0.00  0.00    +0.027 C 
ATOM     47  CG2 VAL A   2      19.788  75.468  14.894  0.00  0.00    +0.002 C 
ATOM     48  CG1 VAL A   2      17.872  77.060  14.616  0.00  0.00    +0.002 C 
ENDBRANCH  30  46
ENDBRANCH  26  30
ENDBRANCH   1  28
TORSDOF 20
REMARK  Name = ../refined-set-2016/3zcl/3zcl_pocket.pdb
REMARK  219 active torsions:
REMARK  status: ('A' for Active; 'I' for Inactive)
REMARK    1  A    between atoms: _1  and  _3
REMARK    2  A    between atoms: _3  and  _4
REMARK    3  A    between atoms: _3  and  _6
REMARK    4  A    between atoms: _9  and  _11
REMARK    5  A    between atoms: _11  and  _12
REMARK    6  A    between atoms: _11  and  _14
REMARK    7  A    between atoms: _14  and  _15
REMARK    8  A    between atoms: _18  and  _20
REMARK    9  A    between atoms: _20  and  _21
REMARK   10  A    between atoms: _23  and  _25
REMARK   11  A    between atoms: _25  and  _26
REMARK   12  A    between atoms: _25  and  _28
REMARK   13  A    between atoms: _28  and  _29
REMARK   14  A    between atoms: _29  and  _30
REMARK   15  A    between atoms: _30  and  _31
REMARK   16  A    between atoms: _40  and  _42
REMARK   17  A    between atoms: _42  and  _43
REMARK   18  A    between atoms: _45  and  _47
REMARK   19  A    between atoms: _47  and  _48
REMARK   20  A    between atoms: _47  and  _50
REMARK   21  A    between atoms: _52  and  _54
REMARK   22  A    between atoms: _54  and  _55
REMARK   23  A    between atoms: _54  and  _57
REMARK   24  A    between atoms: _60  and  _62
REMARK   25  A    between atoms: _62  and  _63
REMARK   26  A    between atoms: _62  and  _65
REMARK   27  A    between atoms: _65  and  _66
REMARK   28  A    between atoms: _71  and  _72
REMARK   29  A    between atoms: _74  and  _76
REMARK   30  A    between atoms: _76  and  _77
REMARK   31  A    between atoms: _76  and  _79
REMARK   32  A    between atoms: _79  and  _80
REMARK   33  A    between atoms: _85  and  _87
REMARK   34  A    between atoms: _87  and  _88
REMARK   35  A    between atoms: _90  and  _92
REMARK   36  A    between atoms: _92  and  _93
REMARK   37  A    between atoms: _92  and  _95
REMARK   38  A    between atoms: _95  and  _96
REMARK   39  A    between atoms: _101  and  _103
REMARK   40  A    between atoms: _103  and  _104
REMARK   41  A    between atoms: _103  and  _106
REMARK   42  A    between atoms: _108  and  _110
REMARK   43  A    between atoms: _110  and  _111
REMARK   44  A    between atoms: _114  and  _116
REMARK   45  A    between atoms: _116  and  _117
REMARK   46  A    between atoms: _116  and  _119
REMARK   47  A    between atoms: _122  and  _124
REMARK   48  A    between atoms: _124  and  _125
REMARK   49  A    between atoms: _124  and  _127
REMARK   50  A    between atoms: _127  and  _128
REMARK   51  A    between atoms: _128  and  _129
REMARK   52  A    between atoms: _129  and  _130
REMARK   53  A    between atoms: _130  and  _131
REMARK   54  A    between atoms: _135  and  _137
REMARK   55  A    between atoms: _137  and  _138
REMARK   56  A    between atoms: _137  and  _140
REMARK   57  A    between atoms: _140  and  _141
REMARK   58  A    between atoms: _143  and  _145
REMARK   59  A    between atoms: _145  and  _146
REMARK   60  A    between atoms: _145  and  _148
REMARK   61  A    between atoms: _148  and  _149
REMARK   62  A    between atoms: _149  and  _150
REMARK   63  A    between atoms: _152  and  _154
REMARK   64  A    between atoms: _154  and  _155
REMARK   65  A    between atoms: _154  and  _157
REMARK   66  A    between atoms: _157  and  _158
REMARK   67  A    between atoms: _161  and  _163
REMARK   68  A    between atoms: _163  and  _164
REMARK   69  A    between atoms: _163  and  _166
REMARK   70  A    between atoms: _166  and  _167
REMARK   71  A    between atoms: _169  and  _171
REMARK   72  A    between atoms: _171  and  _172
REMARK   73  A    between atoms: _171  and  _174
REMARK   74  A    between atoms: _177  and  _179
REMARK   75  A    between atoms: _179  and  _180
REMARK   76  A    between atoms: _179  and  _182
REMARK   77  A    between atoms: _185  and  _187
REMARK   78  A    between atoms: _187  and  _188
REMARK   79  A    between atoms: _187  and  _190
REMARK   80  A    between atoms: _190  and  _191
REMARK   81  A    between atoms: _195  and  _196
REMARK   82  A    between atoms: _201  and  _203
REMARK   83  A    between atoms: _203  and  _204
REMARK   84  A    between atoms: _203  and  _206
REMARK   85  A    between atoms: _206  and  _207
REMARK   86  A    between atoms: _212  and  _213
REMARK   87  A    between atoms: _215  and  _217
REMARK   88  A    between atoms: _217  and  _218
REMARK   89  A    between atoms: _217  and  _220
REMARK   90  A    between atoms: _220  and  _221
REMARK   91  A    between atoms: _221  and  _222
REMARK   92  A    between atoms: _224  and  _226
REMARK   93  A    between atoms: _226  and  _227
REMARK   94  A    between atoms: _226  and  _229
REMARK   95  A    between atoms: _229  and  _230
REMARK   96  A    between atoms: _230  and  _231
REMARK   97  A    between atoms: _231  and  _232
REMARK   98  A    between atoms: _232  and  _233
REMARK   99  A    between atoms: _237  and  _239
REMARK  100  A    between atoms: _239  and  _240
REMARK  101  A    between atoms: _239  and  _242
REMARK  102  A    between atoms: _242  and  _243
REMARK  103  A    between atoms: _248  and  _250
REMARK  104  A    between atoms: _250  and  _251
REMARK  105  A    between atoms: _253  and  _255
REMARK  106  A    between atoms: _255  and  _256
REMARK  107  A    between atoms: _255  and  _258
REMARK  108  A    between atoms: _258  and  _259
REMARK  109  A    between atoms: _262  and  _264
REMARK  110  A    between atoms: _264  and  _265
REMARK  111  A    between atoms: _264  and  _267
REMARK  112  A    between atoms: _267  and  _268
REMARK  113  A    between atoms: _271  and  _273
REMARK  114  A    between atoms: _273  and  _274
REMARK  115  A    between atoms: _273  and  _276
REMARK  116  A    between atoms: _276  and  _277
REMARK  117  A    between atoms: _277  and  _278
REMARK  118  A    between atoms: _278  and  _279
REMARK  119  A    between atoms: _288  and  _290
REMARK  120  A    between atoms: _290  and  _291
REMARK  121  A    between atoms: _290  and  _293
REMARK  122  A    between atoms: _293  and  _294
REMARK  123  A    between atoms: _299  and  _301
REMARK  124  A    between atoms: _301  and  _302
REMARK  125  A    between atoms: _301  and  _304
REMARK  126  A    between atoms: _304  and  _305
REMARK  127  A    between atoms: _311  and  _313
REMARK  128  A    between atoms: _313  and  _314
REMARK  129  A    between atoms: _313  and  _316
REMARK  130  A    between atoms: _316  and  _317
REMARK  131  A    between atoms: _322  and  _324
REMARK  132  A    between atoms: _324  and  _325
REMARK  133  A    between atoms: _324  and  _327
REMARK  134  A    between atoms: _327  and  _328
REMARK  135  A    between atoms: _331  and  _333
REMARK  136  A    between atoms: _333  and  _334
REMARK  137  A    between atoms: _337  and  _339
REMARK  138  A    between atoms: _339  and  _340
REMARK  139  A    between atoms: _343  and  _345
REMARK  140  A    between atoms: _345  and  _346
REMARK  141  A    between atoms: _345  and  _348
REMARK  142  A    between atoms: _348  and  _349
REMARK  143  A    between atoms: _349  and  _350
REMARK  144  A    between atoms: _350  and  _351
REMARK  145  A    between atoms: _360  and  _362
REMARK  146  A    between atoms: _362  and  _363
REMARK  147  A    between atoms: _362  and  _365
REMARK  148  A    between atoms: _365  and  _366
REMARK  149  A    between atoms: _371  and  _373
REMARK  150  A    between atoms: _373  and  _374
REMARK  151  A    between atoms: _373  and  _376
REMARK  152  A    between atoms: _378  and  _380
REMARK  153  A    between atoms: _380  and  _381
REMARK  154  A    between atoms: _380  and  _383
REMARK  155  A    between atoms: _383  and  _384
REMARK  156  A    between atoms: _384  and  _385
REMARK  157  A    between atoms: _387  and  _389
REMARK  158  A    between atoms: _389  and  _390
REMARK  159  A    between atoms: _389  and  _392
REMARK  160  A    between atoms: _392  and  _393
REMARK  161  A    between atoms: _396  and  _398
REMARK  162  A    between atoms: _398  and  _399
REMARK  163  A    between atoms: _398  and  _401
REMARK  164  A    between atoms: _401  and  _402
REMARK  165  A    between atoms: _405  and  _407
REMARK  166  A    between atoms: _407  and  _408
REMARK  167  A    between atoms: _407  and  _410
REMARK  168  A    between atoms: _410  and  _411
REMARK  169  A    between atoms: _411  and  _412
REMARK  170  A    between atoms: _412  and  _413
REMARK  171  A    between atoms: _413  and  _414
REMARK  172  A    between atoms: _418  and  _420
REMARK  173  A    between atoms: _420  and  _421
REMARK  174  A    between atoms: _420  and  _423
REMARK  175  A    between atoms: _426  and  _428
REMARK  176  A    between atoms: _428  and  _429
REMARK  177  A    between atoms: _432  and  _434
REMARK  178  A    between atoms: _434  and  _435
REMARK  179  A    between atoms: _434  and  _437
REMARK  180  A    between atoms: _437  and  _438
REMARK  181  A    between atoms: _441  and  _443
REMARK  182  A    between atoms: _443  and  _444
REMARK  183  A    between atoms: _443  and  _446
REMARK  184  A    between atoms: _446  and  _447
REMARK  185  A    between atoms: _453  and  _455
REMARK  186  A    between atoms: _455  and  _456
REMARK  187  A    between atoms: _455  and  _458
REMARK  188  A    between atoms: _458  and  _459
REMARK  189  A    between atoms: _462  and  _464
REMARK  190  A    between atoms: _464  and  _465
REMARK  191  A    between atoms: _468  and  _470
REMARK  192  A    between atoms: _470  and  _471
REMARK  193  A    between atoms: _470  and  _473
REMARK  194  A    between atoms: _473  and  _474
REMARK  195  A    between atoms: _474  and  _475
REMARK  196  A    between atoms: _475  and  _476
REMARK  197  A    between atoms: _485  and  _487
REMARK  198  A    between atoms: _487  and  _488
REMARK  199  A    between atoms: _487  and  _490
REMARK  200  A    between atoms: _490  and  _491
REMARK  201  A    between atoms: _494  and  _496
REMARK  202  A    between atoms: _496  and  _497
REMARK  203  A    between atoms: _496  and  _499
REMARK  204  A    between atoms: _499  and  _500
REMARK  205  A    between atoms: _500  and  _501
REMARK  206  A    between atoms: _503  and  _505
REMARK  207  A    between atoms: _505  and  _506
REMARK  208  A    between atoms: _505  and  _508
REMARK  209  A    between atoms: _508  and  _509
REMARK  210  A    between atoms: _514  and  _515
REMARK  211  A    between atoms: _517  and  _519
REMARK  212  A    between atoms: _519  and  _520
REMARK  213  A    between atoms: _519  and  _522
REMARK  214  A    between atoms: _522  and  _523
REMARK  215  A    between atoms: _526  and  _528
REMARK  216  A    between atoms: _528  and  _529
REMARK  217  A    between atoms: _528  and  _531
REMARK  218  A    between atoms: _531  and  _532
REMARK  219  A    between atoms: _537  and  _538
REMARK                            x       y       z     vdW  Elec       q    Type
REMARK                         _______ _______ _______ _____ _____    ______ ____
ROOT
ATOM      1  CA  ASP A   4      10.793  85.138   7.225  0.00  0.00    +0.160 C 
ENDROOT
BRANCH   1   4
ATOM      2  C   ARG A   3      11.567  85.693   9.470  0.00  0.00    +0.241 C 
ATOM      3  O   ARG A   3      11.238  86.874   9.357  0.00  0.00    -0.273 OA
ATOM      4  N   ASP A   4      11.436  84.802   8.490  0.00  0.00    -0.297 N 
ATOM      5  H   ASP A   4      11.803  83.839   8.630  0.00  0.00    +0.150 HD
BRANCH   2   6
ATOM      6  CA  ARG A   3      12.153  85.166  10.775  0.00  0.00    +0.149 C 
BRANCH   6   8
ATOM      7  C   ALA A   2      14.369  86.147  10.664  0.00  0.00    +0.241 C 
ATOM      8  N   ARG A   3      13.209  86.029  11.301  0.00  0.00    -0.297 N 
ATOM      9  H   ARG A   3      13.051  86.556  12.183  0.00  0.00    +0.150 HD
ATOM     10  O   ALA A   2      14.593  85.593   9.587  0.00  0.00    -0.273 OA
BRANCH   7  11
ATOM     11  CA  ALA A   2      15.444  87.007  11.328  0.00  0.00    +0.149 C 
ATOM     12  CB  ALA A   2      16.744  86.214  11.453  0.00  0.00    +0.031 C 
BRANCH  11  14
ATOM     13  C   LEU A   1      14.483  88.696  12.794  0.00  0.00    +0.238 C 
ATOM     14  N   ALA A   2      15.027  87.492  12.638  0.00  0.00    -0.297 N 
ATOM     15  H   ALA A   2      15.158  86.882  13.470  0.00  0.00    +0.150 HD
ATOM     16  O   LEU A   1      14.352  89.495  11.866  0.00  0.00    -0.274 OA
BRANCH  13  17
ATOM     17  CA  LEU A   1      14.009  89.053  14.198  0.00  0.00    +0.145 C 
BRANCH  17  18
ATOM     18  N   LEU A   1      14.032  87.910  15.100  0.00  0.00    -0.238 NA
ATOM     19  H   LEU A   1      14.775  87.842  15.825  0.00  0.00    +0.142 HD
ENDBRANCH  17  18
BRANCH  17  20
ATOM     20  CB  LEU A   1      14.867  90.183  14.767  0.00  0.00    +0.026 C 
BRANCH  20  21
ATOM     21  CG  LEU A   1      14.443  90.680  16.150  0.00  0.00    +0.002 C 
ATOM     22  CD2 LEU A   1      15.406  91.760  16.618  0.00  0.00    +0.000 C 
ATOM     23  CD1 LEU A   1      13.019  91.216  16.096  0.00  0.00    +0.000 C 
ENDBRANCH  20  21
ENDBRANCH  17  20
ENDBRANCH  13  17
ENDBRANCH  11  14
ENDBRANCH   7  11
ENDBRANCH   6   8
BRANCH   6  24
ATOM     24  CB  ARG A   3      11.028  85.003  11.800  0.00  0.00    +0.033 C 
BRANCH  24  25
ATOM     25  CG  ARG A   3       9.895  84.112  11.304  0.00  0.00    +0.045 C 
BRANCH  25  26
ATOM     26  CD  ARG A   3       8.806  83.938  12.348  0.00  0.00    +0.174 C 
BRANCH  26  27
ATOM     27  NE  ARG A   3       8.051  85.167  12.569  0.00  0.00    -0.265 N 
ATOM     28  HE  ARG A   3       8.316  85.759  13.382  0.00  0.00    +0.259 HD
ATOM     29  CZ  ARG A   3       7.047  85.581  11.801  0.00  0.00    +0.342 C 
ATOM     30  NH2 ARG A   3       6.414  86.708  12.089  0.00  0.00    -0.292 N 
ATOM     31 HH21 ARG A   3       6.702  87.269  12.916  0.00  0.00    +0.255 HD
ATOM     32 HH22 ARG A   3       5.629  87.032  11.488  0.00  0.00    +0.255 HD
ATOM     33  NH1 ARG A   3       6.670  84.865  10.749  0.00  0.00    -0.292 N 
ATOM     34 HH11 ARG A   3       7.160  83.976  10.522  0.00  0.00    +0.255 HD
ATOM     35 HH12 ARG A   3       5.884  85.193  10.151  0.00  0.00    +0.255 HD
ENDBRANCH  26  27
ENDBRANCH  25  26
ENDBRANCH  24  25
ENDBRANCH   6  24
ENDBRANCH   2   6
ENDBRANCH   1   4
BRANCH   1  36
ATOM     36  C   ASP A   4      10.649  83.865   6.395  0.00  0.00    +0.241 C 
ATOM     37  O   ASP A   4      11.008  82.773   6.844  0.00  0.00    -0.273 OA
ATOM     38  N   MET A   5      10.107  84.011   5.191  0.00  0.00    -0.297 N 
ATOM     39  H   MET A   5       9.688  84.926   4.930  0.00  0.00    +0.150 HD
BRANCH  38  40
ATOM     40  CA  MET A   5      10.086  82.920   4.228  0.00  0.00    +0.149 C 
BRANCH  40  41
ATOM     41  C   MET A   5      11.107  83.214   3.136  0.00  0.00    +0.241 C 
ATOM     42  N   TYR A   6      12.220  82.487   3.156  0.00  0.00    -0.297 N 
ATOM     43  H   TYR A   6      12.301  81.700   3.831  0.00  0.00    +0.150 HD
ATOM     44  O   MET A   5      10.889  84.085   2.294  0.00  0.00    -0.273 OA
BRANCH  42  45
ATOM     45  CA  TYR A   6      13.329  82.769   2.252  0.00  0.00    +0.153 C 
BRANCH  45  46
ATOM     46  C   TYR A   6      13.307  81.916   0.981  0.00  0.00    +0.241 C 
ATOM     47  N   ASP A   7      12.442  80.907   0.947  0.00  0.00    -0.298 N 
ATOM     48  H   ASP A   7      11.918  80.656   1.810  0.00  0.00    +0.150 HD
ATOM     49  O   TYR A   6      14.069  82.166   0.048  0.00  0.00    -0.273 OA
BRANCH  47  50
ATOM     50  CA  ASP A   7      12.212  80.143  -0.278  0.00  0.00    +0.148 C 
BRANCH  50  51
ATOM     51  C   ASP A   7      10.738  79.767  -0.340  0.00  0.00    +0.227 C 
ATOM     52  O   ASP A   7      10.303  78.807   0.304  0.00  0.00    -0.286 OA
ENDBRANCH  50  51
BRANCH  50  53
ATOM     53  CB  ASP A   7      13.072  78.872  -0.297  0.00  0.00    +0.142 C 
BRANCH  53  54
ATOM     54  CG  ASP A   7      12.972  78.113  -1.615  0.00  0.00    +0.367 C 
ATOM     55  OD2 ASP A   7      13.774  77.176  -1.832  0.00  0.00    -0.246 OA
ATOM     56  OD1 ASP A   7      12.095  78.454  -2.439  0.00  0.00    -0.246 OA
ENDBRANCH  53  54
ENDBRANCH  50  53
ENDBRANCH  47  50
ENDBRANCH  45  46
BRANCH  45  57
ATOM     57  CB  TYR A   6      14.661  82.580   2.988  0.00  0.00    +0.055 C 
BRANCH  57  58
ATOM     58  CG  TYR A   6      14.884  83.590   4.093  0.00  0.00    -0.020 A 
ATOM     59  CD2 TYR A   6      14.659  83.259   5.424  0.00  0.00    -0.001 A 
ATOM     60  CE2 TYR A   6      14.843  84.189   6.438  0.00  0.00    +0.036 A 
ATOM     61  CZ  TYR A   6      15.256  85.469   6.123  0.00  0.00    +0.134 A 
ATOM     62  CE1 TYR A   6      15.488  85.821   4.807  0.00  0.00    +0.036 A 
ATOM     63  CD1 TYR A   6      15.303  84.883   3.801  0.00  0.00    -0.001 A 
BRANCH  61  64
ATOM     64  OH  TYR A   6      15.433  86.401   7.130  0.00  0.00    -0.506 OA
ATOM     65  HH  TYR A   6      14.577  86.534   7.609  0.00  0.00    +0.292 HD
ENDBRANCH  61  64
ENDBRANCH  57  58
ENDBRANCH  45  57
ENDBRANCH  42  45
ENDBRANCH  40  41
BRANCH  40  66
ATOM     66  CB  MET A   5       8.689  82.783   3.616  0.00  0.00    +0.041 C 
BRANCH  66  67
ATOM     67  CG  MET A   5       7.645  82.284   4.592  0.00  0.00    +0.060 C 
BRANCH  67  68
ATOM     68  SD  MET A   5       6.036  82.059   3.816  0.00  0.00    -0.139 S 
ATOM     69  CE  MET A   5       6.520  81.857   2.102  0.00  0.00    +0.069 C 
ENDBRANCH  67  68
ENDBRANCH  66  67
ENDBRANCH  40  66
ENDBRANCH  38  40
ENDBRANCH   1  36
BRANCH   1  70
ATOM     70  CB  ASP A   4      11.628  86.169   6.459  0.00  0.00    +0.143 C 
BRANCH  70  71
ATOM     71  CG  ASP A   4      10.782  87.073   5.569  0.00  0.00    +0.367 C 
ATOM     72  OD2 ASP A   4      11.187  88.234   5.346  0.00  0.00    -0.246 OA
ATOM     73  OD1 ASP A   4       9.718  86.629   5.092  0.00  0.00    -0.246 OA
ENDBRANCH  70  71
ENDBRANCH   1  70
TORSDOF 30
REMARK  Name = ../refined-set-2016/3zcl/3zcl_pocket.pdb
REMARK  219 active torsions:
REMARK  status: ('A' for Active; 'I' for Inactive)
REMARK    1  A    between atoms: _1  and  _3
REMARK    2  A    between atoms: _3  and  _4
REMARK    3  A    between atoms: _3  and  _6
REMARK    4  A    between atoms: _9  and  _11
REMARK    5  A    between atoms: _11  and  _12
REMARK    6  A    between atoms: _11  and  _14
REMARK    7  A    between atoms: _14  and  _15
REMARK    8  A    between atoms: _18  and  _20
REMARK    9  A    between atoms: _20  and  _21
REMARK   10  A    between atoms: _23  and  _25
REMARK   11  A    between atoms: _25  and  _26
REMARK   12  A    between atoms: _25  and  _28
REMARK   13  A    between atoms: _28  and  _29
REMARK   14  A    between atoms: _29  and  _30
REMARK   15  A    between atoms: _30  and  _31
REMARK   16  A    between atoms: _40  and  _42
REMARK   17  A    between atoms: _42  and  _43
REMARK   18  A    between atoms: _45  and  _47
REMARK   19  A    between atoms: _47  and  _48
REMARK   20  A    between atoms: _47  and  _50
REMARK   21  A    between atoms: _52  and  _54
REMARK   22  A    between atoms: _54  and  _55
REMARK   23  A    between atoms: _54  and  _57
REMARK   24  A    between atoms: _60  and  _62
REMARK   25  A    between atoms: _62  and  _63
REMARK   26  A    between atoms: _62  and  _65
REMARK   27  A    between atoms: _65  and  _66
REMARK   28  A    between atoms: _71  and  _72
REMARK   29  A    between atoms: _74  and  _76
REMARK   30  A    between atoms: _76  and  _77
REMARK   31  A    between atoms: _76  and  _79
REMARK   32  A    between atoms: _79  and  _80
REMARK   33  A    between atoms: _85  and  _87
REMARK   34  A    between atoms: _87  and  _88
REMARK   35  A    between atoms: _90  and  _92
REMARK   36  A    between atoms: _92  and  _93
REMARK   37  A    between atoms: _92  and  _95
REMARK   38  A    between atoms: _95  and  _96
REMARK   39  A    between atoms: _101  and  _103
REMARK   40  A    between atoms: _103  and  _104
REMARK   41  A    between atoms: _103  and  _106
REMARK   42  A    between atoms: _108  and  _110
REMARK   43  A    between atoms: _110  and  _111
REMARK   44  A    between atoms: _114  and  _116
REMARK   45  A    between atoms: _116  and  _117
REMARK   46  A    between atoms: _116  and  _119
REMARK   47  A    between atoms: _122  and  _124
REMARK   48  A    between atoms: _124  and  _125
REMARK   49  A    between atoms: _124  and  _127
REMARK   50  A    between atoms: _127  and  _128
REMARK   51  A    between atoms: _128  and  _129
REMARK   52  A    between atoms: _129  and  _130
REMARK   53  A    between atoms: _130  and  _131
REMARK   54  A    between atoms: _135  and  _137
REMARK   55  A    between atoms: _137  and  _138
REMARK   56  A    between atoms: _137  and  _140
REMARK   57  A    between atoms: _140  and  _141
REMARK   58  A    between atoms: _143  and  _145
REMARK   59  A    between atoms: _145  and  _146
REMARK   60  A    between atoms: _145  and  _148
REMARK   61  A    between atoms: _148  and  _149
REMARK   62  A    between atoms: _149  and  _150
REMARK   63  A    between atoms: _152  and  _154
REMARK   64  A    between atoms: _154  and  _155
REMARK   65  A    between atoms: _154  and  _157
REMARK   66  A    between atoms: _157  and  _158
REMARK   67  A    between atoms: _161  and  _163
REMARK   68  A    between atoms: _163  and  _164
REMARK   69  A    between atoms: _163  and  _166
REMARK   70  A    between atoms: _166  and  _167
REMARK   71  A    between atoms: _169  and  _171
REMARK   72  A    between atoms: _171  and  _172
REMARK   73  A    between atoms: _171  and  _174
REMARK   74  A    between atoms: _177  and  _179
REMARK   75  A    between atoms: _179  and  _180
REMARK   76  A    between atoms: _179  and  _182
REMARK   77  A    between atoms: _185  and  _187
REMARK   78  A    between atoms: _187  and  _188
REMARK   79  A    between atoms: _187  and  _190
REMARK   80  A    between atoms: _190  and  _191
REMARK   81  A    between atoms: _195  and  _196
REMARK   82  A    between atoms: _201  and  _203
REMARK   83  A    between atoms: _203  and  _204
REMARK   84  A    between atoms: _203  and  _206
REMARK   85  A    between atoms: _206  and  _207
REMARK   86  A    between atoms: _212  and  _213
REMARK   87  A    between atoms: _215  and  _217
REMARK   88  A    between atoms: _217  and  _218
REMARK   89  A    between atoms: _217  and  _220
REMARK   90  A    between atoms: _220  and  _221
REMARK   91  A    between atoms: _221  and  _222
REMARK   92  A    between atoms: _224  and  _226
REMARK   93  A    between atoms: _226  and  _227
REMARK   94  A    between atoms: _226  and  _229
REMARK   95  A    between atoms: _229  and  _230
REMARK   96  A    between atoms: _230  and  _231
REMARK   97  A    between atoms: _231  and  _232
REMARK   98  A    between atoms: _232  and  _233
REMARK   99  A    between atoms: _237  and  _239
REMARK  100  A    between atoms: _239  and  _240
REMARK  101  A    between atoms: _239  and  _242
REMARK  102  A    between atoms: _242  and  _243
REMARK  103  A    between atoms: _248  and  _250
REMARK  104  A    between atoms: _250  and  _251
REMARK  105  A    between atoms: _253  and  _255
REMARK  106  A    between atoms: _255  and  _256
REMARK  107  A    between atoms: _255  and  _258
REMARK  108  A    between atoms: _258  and  _259
REMARK  109  A    between atoms: _262  and  _264
REMARK  110  A    between atoms: _264  and  _265
REMARK  111  A    between atoms: _264  and  _267
REMARK  112  A    between atoms: _267  and  _268
REMARK  113  A    between atoms: _271  and  _273
REMARK  114  A    between atoms: _273  and  _274
REMARK  115  A    between atoms: _273  and  _276
REMARK  116  A    between atoms: _276  and  _277
REMARK  117  A    between atoms: _277  and  _278
REMARK  118  A    between atoms: _278  and  _279
REMARK  119  A    between atoms: _288  and  _290
REMARK  120  A    between atoms: _290  and  _291
REMARK  121  A    between atoms: _290  and  _293
REMARK  122  A    between atoms: _293  and  _294
REMARK  123  A    between atoms: _299  and  _301
REMARK  124  A    between atoms: _301  and  _302
REMARK  125  A    between atoms: _301  and  _304
REMARK  126  A    between atoms: _304  and  _305
REMARK  127  A    between atoms: _311  and  _313
REMARK  128  A    between atoms: _313  and  _314
REMARK  129  A    between atoms: _313  and  _316
REMARK  130  A    between atoms: _316  and  _317
REMARK  131  A    between atoms: _322  and  _324
REMARK  132  A    between atoms: _324  and  _325
REMARK  133  A    between atoms: _324  and  _327
REMARK  134  A    between atoms: _327  and  _328
REMARK  135  A    between atoms: _331  and  _333
REMARK  136  A    between atoms: _333  and  _334
REMARK  137  A    between atoms: _337  and  _339
REMARK  138  A    between atoms: _339  and  _340
REMARK  139  A    between atoms: _343  and  _345
REMARK  140  A    between atoms: _345  and  _346
REMARK  141  A    between atoms: _345  and  _348
REMARK  142  A    between atoms: _348  and  _349
REMARK  143  A    between atoms: _349  and  _350
REMARK  144  A    between atoms: _350  and  _351
REMARK  145  A    between atoms: _360  and  _362
REMARK  146  A    between atoms: _362  and  _363
REMARK  147  A    between atoms: _362  and  _365
REMARK  148  A    between atoms: _365  and  _366
REMARK  149  A    between atoms: _371  and  _373
REMARK  150  A    between atoms: _373  and  _374
REMARK  151  A    between atoms: _373  and  _376
REMARK  152  A    between atoms: _378  and  _380
REMARK  153  A    between atoms: _380  and  _381
REMARK  154  A    between atoms: _380  and  _383
REMARK  155  A    between atoms: _383  and  _384
REMARK  156  A    between atoms: _384  and  _385
REMARK  157  A    between atoms: _387  and  _389
REMARK  158  A    between atoms: _389  and  _390
REMARK  159  A    between atoms: _389  and  _392
REMARK  160  A    between atoms: _392  and  _393
REMARK  161  A    between atoms: _396  and  _398
REMARK  162  A    between atoms: _398  and  _399
REMARK  163  A    between atoms: _398  and  _401
REMARK  164  A    between atoms: _401  and  _402
REMARK  165  A    between atoms: _405  and  _407
REMARK  166  A    between atoms: _407  and  _408
REMARK  167  A    between atoms: _407  and  _410
REMARK  168  A    between atoms: _410  and  _411
REMARK  169  A    between atoms: _411  and  _412
REMARK  170  A    between atoms: _412  and  _413
REMARK  171  A    between atoms: _413  and  _414
REMARK  172  A    between atoms: _418  and  _420
REMARK  173  A    between atoms: _420  and  _421
REMARK  174  A    between atoms: _420  and  _423
REMARK  175  A    between atoms: _426  and  _428
REMARK  176  A    between atoms: _428  and  _429
REMARK  177  A    between atoms: _432  and  _434
REMARK  178  A    between atoms: _434  and  _435
REMARK  179  A    between atoms: _434  and  _437
REMARK  180  A    between atoms: _437  and  _438
REMARK  181  A    between atoms: _441  and  _443
REMARK  182  A    between atoms: _443  and  _444
REMARK  183  A    between atoms: _443  and  _446
REMARK  184  A    between atoms: _446  and  _447
REMARK  185  A    between atoms: _453  and  _455
REMARK  186  A    between atoms: _455  and  _456
REMARK  187  A    between atoms: _455  and  _458
REMARK  188  A    between atoms: _458  and  _459
REMARK  189  A    between atoms: _462  and  _464
REMARK  190  A    between atoms: _464  and  _465
REMARK  191  A    between atoms: _468  and  _470
REMARK  192  A    between atoms: _470  and  _471
REMARK  193  A    between atoms: _470  and  _473
REMARK  194  A    between atoms: _473  and  _474
REMARK  195  A    between atoms: _474  and  _475
REMARK  196  A    between atoms: _475  and  _476
REMARK  197  A    between atoms: _485  and  _487
REMARK  198  A    between atoms: _487  and  _488
REMARK  199  A    between atoms: _487  and  _490
REMARK  200  A    between atoms: _490  and  _491
REMARK  201  A    between atoms: _494  and  _496
REMARK  202  A    between atoms: _496  and  _497
REMARK  203  A    between atoms: _496  and  _499
REMARK  204  A    between atoms: _499  and  _500
REMARK  205  A    between atoms: _500  and  _501
REMARK  206  A    between atoms: _503  and  _505
REMARK  207  A    between atoms: _505  and  _506
REMARK  208  A    between atoms: _505  and  _508
REMARK  209  A    between atoms: _508  and  _509
REMARK  210  A    between atoms: _514  and  _515
REMARK  211  A    between atoms: _517  and  _519
REMARK  212  A    between atoms: _519  and  _520
REMARK  213  A    between atoms: _519  and  _522
REMARK  214  A    between atoms: _522  and  _523
REMARK  215  A    between atoms: _526  and  _528
REMARK  216  A    between atoms: _528  and  _529
REMARK  217  A    between atoms: _528  and  _531
REMARK  218  A    between atoms: _531  and  _532
REMARK  219  A    between atoms: _537  and  _538
REMARK                            x       y       z     vdW  Elec       q    Type
REMARK                         _______ _______ _______ _____ _____    ______ ____
ROOT
ATOM      1  CG  TYR A   1       6.900  78.492   3.230  0.00  0.00    -0.020 A 
ATOM      2  CD2 TYR A   1       6.870  78.450   4.617  0.00  0.00    -0.001 A 
ATOM      3  CE2 TYR A   1       8.035  78.483   5.359  0.00  0.00    +0.036 A 
ATOM      4  CZ  TYR A   1       9.252  78.559   4.713  0.00  0.00    +0.134 A 
ATOM      5  CE1 TYR A   1       9.311  78.605   3.339  0.00  0.00    +0.036 A 
ATOM      6  CD1 TYR A   1       8.138  78.573   2.602  0.00  0.00    -0.001 A 
ENDROOT
BRANCH   4   7
ATOM      7  OH  TYR A   1      10.417  78.582   5.444  0.00  0.00    -0.506 OA
ATOM      8  HH  TYR A   1      11.190  78.638   4.828  0.00  0.00    +0.292 HD
ENDBRANCH   4   7
BRANCH   1   9
ATOM      9  CB  TYR A   1       5.625  78.405   2.425  0.00  0.00    +0.051 C 
BRANCH   9  10
ATOM     10  CA  TYR A   1       5.361  76.996   1.896  0.00  0.00    +0.137 C 
BRANCH  10  11
ATOM     11  N   TYR A   1       6.445  76.585   1.014  0.00  0.00    -0.239 NA
ATOM     12  H   TYR A   1       6.616  77.124   0.141  0.00  0.00    +0.142 HD
ENDBRANCH  10  11
BRANCH  10  13
ATOM     13  C   TYR A   1       4.042  76.961   1.137  0.00  0.00    +0.224 C 
ATOM     14  O   TYR A   1       3.965  77.408  -0.008  0.00  0.00    -0.287 OA
ENDBRANCH  10  13
ENDBRANCH   9  10
ENDBRANCH   1   9
TORSDOF 5
REMARK  Name = ../refined-set-2016/3zcl/3zcl_pocket.pdb
REMARK  219 active torsions:
REMARK  status: ('A' for Active; 'I' for Inactive)
REMARK    1  A    between atoms: _1  and  _3
REMARK    2  A    between atoms: _3  and  _4
REMARK    3  A    between atoms: _3  and  _6
REMARK    4  A    between atoms: _9  and  _11
REMARK    5  A    between atoms: _11  and  _12
REMARK    6  A    between atoms: _11  and  _14
REMARK    7  A    between atoms: _14  and  _15
REMARK    8  A    between atoms: _18  and  _20
REMARK    9  A    between atoms: _20  and  _21
REMARK   10  A    between atoms: _23  and  _25
REMARK   11  A    between atoms: _25  and  _26
REMARK   12  A    between atoms: _25  and  _28
REMARK   13  A    between atoms: _28  and  _29
REMARK   14  A    between atoms: _29  and  _30
REMARK   15  A    between atoms: _30  and  _31
REMARK   16  A    between atoms: _40  and  _42
REMARK   17  A    between atoms: _42  and  _43
REMARK   18  A    between atoms: _45  and  _47
REMARK   19  A    between atoms: _47  and  _48
REMARK   20  A    between atoms: _47  and  _50
REMARK   21  A    between atoms: _52  and  _54
REMARK   22  A    between atoms: _54  and  _55
REMARK   23  A    between atoms: _54  and  _57
REMARK   24  A    between atoms: _60  and  _62
REMARK   25  A    between atoms: _62  and  _63
REMARK   26  A    between atoms: _62  and  _65
REMARK   27  A    between atoms: _65  and  _66
REMARK   28  A    between atoms: _71  and  _72
REMARK   29  A    between atoms: _74  and  _76
REMARK   30  A    between atoms: _76  and  _77
REMARK   31  A    between atoms: _76  and  _79
REMARK   32  A    between atoms: _79  and  _80
REMARK   33  A    between atoms: _85  and  _87
REMARK   34  A    between atoms: _87  and  _88
REMARK   35  A    between atoms: _90  and  _92
REMARK   36  A    between atoms: _92  and  _93
REMARK   37  A    between atoms: _92  and  _95
REMARK   38  A    between atoms: _95  and  _96
REMARK   39  A    between atoms: _101  and  _103
REMARK   40  A    between atoms: _103  and  _104
REMARK   41  A    between atoms: _103  and  _106
REMARK   42  A    between atoms: _108  and  _110
REMARK   43  A    between atoms: _110  and  _111
REMARK   44  A    between atoms: _114  and  _116
REMARK   45  A    between atoms: _116  and  _117
REMARK   46  A    between atoms: _116  and  _119
REMARK   47  A    between atoms: _122  and  _124
REMARK   48  A    between atoms: _124  and  _125
REMARK   49  A    between atoms: _124  and  _127
REMARK   50  A    between atoms: _127  and  _128
REMARK   51  A    between atoms: _128  and  _129
REMARK   52  A    between atoms: _129  and  _130
REMARK   53  A    between atoms: _130  and  _131
REMARK   54  A    between atoms: _135  and  _137
REMARK   55  A    between atoms: _137  and  _138
REMARK   56  A    between atoms: _137  and  _140
REMARK   57  A    between atoms: _140  and  _141
REMARK   58  A    between atoms: _143  and  _145
REMARK   59  A    between atoms: _145  and  _146
REMARK   60  A    between atoms: _145  and  _148
REMARK   61  A    between atoms: _148  and  _149
REMARK   62  A    between atoms: _149  and  _150
REMARK   63  A    between atoms: _152  and  _154
REMARK   64  A    between atoms: _154  and  _155
REMARK   65  A    between atoms: _154  and  _157
REMARK   66  A    between atoms: _157  and  _158
REMARK   67  A    between atoms: _161  and  _163
REMARK   68  A    between atoms: _163  and  _164
REMARK   69  A    between atoms: _163  and  _166
REMARK   70  A    between atoms: _166  and  _167
REMARK   71  A    between atoms: _169  and  _171
REMARK   72  A    between atoms: _171  and  _172
REMARK   73  A    between atoms: _171  and  _174
REMARK   74  A    between atoms: _177  and  _179
REMARK   75  A    between atoms: _179  and  _180
REMARK   76  A    between atoms: _179  and  _182
REMARK   77  A    between atoms: _185  and  _187
REMARK   78  A    between atoms: _187  and  _188
REMARK   79  A    between atoms: _187  and  _190
REMARK   80  A    between atoms: _190  and  _191
REMARK   81  A    between atoms: _195  and  _196
REMARK   82  A    between atoms: _201  and  _203
REMARK   83  A    between atoms: _203  and  _204
REMARK   84  A    between atoms: _203  and  _206
REMARK   85  A    between atoms: _206  and  _207
REMARK   86  A    between atoms: _212  and  _213
REMARK   87  A    between atoms: _215  and  _217
REMARK   88  A    between atoms: _217  and  _218
REMARK   89  A    between atoms: _217  and  _220
REMARK   90  A    between atoms: _220  and  _221
REMARK   91  A    between atoms: _221  and  _222
REMARK   92  A    between atoms: _224  and  _226
REMARK   93  A    between atoms: _226  and  _227
REMARK   94  A    between atoms: _226  and  _229
REMARK   95  A    between atoms: _229  and  _230
REMARK   96  A    between atoms: _230  and  _231
REMARK   97  A    between atoms: _231  and  _232
REMARK   98  A    between atoms: _232  and  _233
REMARK   99  A    between atoms: _237  and  _239
REMARK  100  A    between atoms: _239  and  _240
REMARK  101  A    between atoms: _239  and  _242
REMARK  102  A    between atoms: _242  and  _243
REMARK  103  A    between atoms: _248  and  _250
REMARK  104  A    between atoms: _250  and  _251
REMARK  105  A    between atoms: _253  and  _255
REMARK  106  A    between atoms: _255  and  _256
REMARK  107  A    between atoms: _255  and  _258
REMARK  108  A    between atoms: _258  and  _259
REMARK  109  A    between atoms: _262  and  _264
REMARK  110  A    between atoms: _264  and  _265
REMARK  111  A    between atoms: _264  and  _267
REMARK  112  A    between atoms: _267  and  _268
REMARK  113  A    between atoms: _271  and  _273
REMARK  114  A    between atoms: _273  and  _274
REMARK  115  A    between atoms: _273  and  _276
REMARK  116  A    between atoms: _276  and  _277
REMARK  117  A    between atoms: _277  and  _278
REMARK  118  A    between atoms: _278  and  _279
REMARK  119  A    between atoms: _288  and  _290
REMARK  120  A    between atoms: _290  and  _291
REMARK  121  A    between atoms: _290  and  _293
REMARK  122  A    between atoms: _293  and  _294
REMARK  123  A    between atoms: _299  and  _301
REMARK  124  A    between atoms: _301  and  _302
REMARK  125  A    between atoms: _301  and  _304
REMARK  126  A    between atoms: _304  and  _305
REMARK  127  A    between atoms: _311  and  _313
REMARK  128  A    between atoms: _313  and  _314
REMARK  129  A    between atoms: _313  and  _316
REMARK  130  A    between atoms: _316  and  _317
REMARK  131  A    between atoms: _322  and  _324
REMARK  132  A    between atoms: _324  and  _325
REMARK  133  A    between atoms: _324  and  _327
REMARK  134  A    between atoms: _327  and  _328
REMARK  135  A    between atoms: _331  and  _333
REMARK  136  A    between atoms: _333  and  _334
REMARK  137  A    between atoms: _337  and  _339
REMARK  138  A    between atoms: _339  and  _340
REMARK  139  A    between atoms: _343  and  _345
REMARK  140  A    between atoms: _345  and  _346
REMARK  141  A    between atoms: _345  and  _348
REMARK  142  A    between atoms: _348  and  _349
REMARK  143  A    between atoms: _349  and  _350
REMARK  144  A    between atoms: _350  and  _351
REMARK  145  A    between atoms: _360  and  _362
REMARK  146  A    between atoms: _362  and  _363
REMARK  147  A    between atoms: _362  and  _365
REMARK  148  A    between atoms: _365  and  _366
REMARK  149  A    between atoms: _371  and  _373
REMARK  150  A    between atoms: _373  and  _374
REMARK  151  A    between atoms: _373  and  _376
REMARK  152  A    between atoms: _378  and  _380
REMARK  153  A    between atoms: _380  and  _381
REMARK  154  A    between atoms: _380  and  _383
REMARK  155  A    between atoms: _383  and  _384
REMARK  156  A    between atoms: _384  and  _385
REMARK  157  A    between atoms: _387  and  _389
REMARK  158  A    between atoms: _389  and  _390
REMARK  159  A    between atoms: _389  and  _392
REMARK  160  A    between atoms: _392  and  _393
REMARK  161  A    between atoms: _396  and  _398
REMARK  162  A    between atoms: _398  and  _399
REMARK  163  A    between atoms: _398  and  _401
REMARK  164  A    between atoms: _401  and  _402
REMARK  165  A    between atoms: _405  and  _407
REMARK  166  A    between atoms: _407  and  _408
REMARK  167  A    between atoms: _407  and  _410
REMARK  168  A    between atoms: _410  and  _411
REMARK  169  A    between atoms: _411  and  _412
REMARK  170  A    between atoms: _412  and  _413
REMARK  171  A    between atoms: _413  and  _414
REMARK  172  A    between atoms: _418  and  _420
REMARK  173  A    between atoms: _420  and  _421
REMARK  174  A    between atoms: _420  and  _423
REMARK  175  A    between atoms: _426  and  _428
REMARK  176  A    between atoms: _428  and  _429
REMARK  177  A    between atoms: _432  and  _434
REMARK  178  A    between atoms: _434  and  _435
REMARK  179  A    between atoms: _434  and  _437
REMARK  180  A    between atoms: _437  and  _438
REMARK  181  A    between atoms: _441  and  _443
REMARK  182  A    between atoms: _443  and  _444
REMARK  183  A    between atoms: _443  and  _446
REMARK  184  A    between atoms: _446  and  _447
REMARK  185  A    between atoms: _453  and  _455
REMARK  186  A    between atoms: _455  and  _456
REMARK  187  A    between atoms: _455  and  _458
REMARK  188  A    between atoms: _458  and  _459
REMARK  189  A    between atoms: _462  and  _464
REMARK  190  A    between atoms: _464  and  _465
REMARK  191  A    between atoms: _468  and  _470
REMARK  192  A    between atoms: _470  and  _471
REMARK  193  A    between atoms: _470  and  _473
REMARK  194  A    between atoms: _473  and  _474
REMARK  195  A    between atoms: _474  and  _475
REMARK  196  A    between atoms: _475  and  _476
REMARK  197  A    between atoms: _485  and  _487
REMARK  198  A    between atoms: _487  and  _488
REMARK  199  A    between atoms: _487  and  _490
REMARK  200  A    between atoms: _490  and  _491
REMARK  201  A    between atoms: _494  and  _496
REMARK  202  A    between atoms: _496  and  _497
REMARK  203  A    between atoms: _496  and  _499
REMARK  204  A    between atoms: _499  and  _500
REMARK  205  A    between atoms: _500  and  _501
REMARK  206  A    between atoms: _503  and  _505
REMARK  207  A    between atoms: _505  and  _506
REMARK  208  A    between atoms: _505  and  _508
REMARK  209  A    between atoms: _508  and  _509
REMARK  210  A    between atoms: _514  and  _515
REMARK  211  A    between atoms: _517  and  _519
REMARK  212  A    between atoms: _519  and  _520
REMARK  213  A    between atoms: _519  and  _522
REMARK  214  A    between atoms: _522  and  _523
REMARK  215  A    between atoms: _526  and  _528
REMARK  216  A    between atoms: _528  and  _529
REMARK  217  A    between atoms: _528  and  _531
REMARK  218  A    between atoms: _531  and  _532
REMARK  219  A    between atoms: _537  and  _538
REMARK                            x       y       z     vdW  Elec       q    Type
REMARK                         _______ _______ _______ _____ _____    ______ ____
ROOT
ATOM      1  O   HOH     1      17.676  79.744   2.456  0.00  0.00    +0.000 OA
ENDROOT
TORSDOF 0
REMARK  Name = ../refined-set-2016/3zcl/3zcl_pocket.pdb
REMARK  219 active torsions:
REMARK  status: ('A' for Active; 'I' for Inactive)
REMARK    1  A    between atoms: _1  and  _3
REMARK    2  A    between atoms: _3  and  _4
REMARK    3  A    between atoms: _3  and  _6
REMARK    4  A    between atoms: _9  and  _11
REMARK    5  A    between atoms: _11  and  _12
REMARK    6  A    between atoms: _11  and  _14
REMARK    7  A    between atoms: _14  and  _15
REMARK    8  A    between atoms: _18  and  _20
REMARK    9  A    between atoms: _20  and  _21
REMARK   10  A    between atoms: _23  and  _25
REMARK   11  A    between atoms: _25  and  _26
REMARK   12  A    between atoms: _25  and  _28
REMARK   13  A    between atoms: _28  and  _29
REMARK   14  A    between atoms: _29  and  _30
REMARK   15  A    between atoms: _30  and  _31
REMARK   16  A    between atoms: _40  and  _42
REMARK   17  A    between atoms: _42  and  _43
REMARK   18  A    between atoms: _45  and  _47
REMARK   19  A    between atoms: _47  and  _48
REMARK   20  A    between atoms: _47  and  _50
REMARK   21  A    between atoms: _52  and  _54
REMARK   22  A    between atoms: _54  and  _55
REMARK   23  A    between atoms: _54  and  _57
REMARK   24  A    between atoms: _60  and  _62
REMARK   25  A    between atoms: _62  and  _63
REMARK   26  A    between atoms: _62  and  _65
REMARK   27  A    between atoms: _65  and  _66
REMARK   28  A    between atoms: _71  and  _72
REMARK   29  A    between atoms: _74  and  _76
REMARK   30  A    between atoms: _76  and  _77
REMARK   31  A    between atoms: _76  and  _79
REMARK   32  A    between atoms: _79  and  _80
REMARK   33  A    between atoms: _85  and  _87
REMARK   34  A    between atoms: _87  and  _88
REMARK   35  A    between atoms: _90  and  _92
REMARK   36  A    between atoms: _92  and  _93
REMARK   37  A    between atoms: _92  and  _95
REMARK   38  A    between atoms: _95  and  _96
REMARK   39  A    between atoms: _101  and  _103
REMARK   40  A    between atoms: _103  and  _104
REMARK   41  A    between atoms: _103  and  _106
REMARK   42  A    between atoms: _108  and  _110
REMARK   43  A    between atoms: _110  and  _111
REMARK   44  A    between atoms: _114  and  _116
REMARK   45  A    between atoms: _116  and  _117
REMARK   46  A    between atoms: _116  and  _119
REMARK   47  A    between atoms: _122  and  _124
REMARK   48  A    between atoms: _124  and  _125
REMARK   49  A    between atoms: _124  and  _127
REMARK   50  A    between atoms: _127  and  _128
REMARK   51  A    between atoms: _128  and  _129
REMARK   52  A    between atoms: _129  and  _130
REMARK   53  A    between atoms: _130  and  _131
REMARK   54  A    between atoms: _135  and  _137
REMARK   55  A    between atoms: _137  and  _138
REMARK   56  A    between atoms: _137  and  _140
REMARK   57  A    between atoms: _140  and  _141
REMARK   58  A    between atoms: _143  and  _145
REMARK   59  A    between atoms: _145  and  _146
REMARK   60  A    between atoms: _145  and  _148
REMARK   61  A    between atoms: _148  and  _149
REMARK   62  A    between atoms: _149  and  _150
REMARK   63  A    between atoms: _152  and  _154
REMARK   64  A    between atoms: _154  and  _155
REMARK   65  A    between atoms: _154  and  _157
REMARK   66  A    between atoms: _157  and  _158
REMARK   67  A    between atoms: _161  and  _163
REMARK   68  A    between atoms: _163  and  _164
REMARK   69  A    between atoms: _163  and  _166
REMARK   70  A    between atoms: _166  and  _167
REMARK   71  A    between atoms: _169  and  _171
REMARK   72  A    between atoms: _171  and  _172
REMARK   73  A    between atoms: _171  and  _174
REMARK   74  A    between atoms: _177  and  _179
REMARK   75  A    between atoms: _179  and  _180
REMARK   76  A    between atoms: _179  and  _182
REMARK   77  A    between atoms: _185  and  _187
REMARK   78  A    between atoms: _187  and  _188
REMARK   79  A    between atoms: _187  and  _190
REMARK   80  A    between atoms: _190  and  _191
REMARK   81  A    between atoms: _195  and  _196
REMARK   82  A    between atoms: _201  and  _203
REMARK   83  A    between atoms: _203  and  _204
REMARK   84  A    between atoms: _203  and  _206
REMARK   85  A    between atoms: _206  and  _207
REMARK   86  A    between atoms: _212  and  _213
REMARK   87  A    between atoms: _215  and  _217
REMARK   88  A    between atoms: _217  and  _218
REMARK   89  A    between atoms: _217  and  _220
REMARK   90  A    between atoms: _220  and  _221
REMARK   91  A    between atoms: _221  and  _222
REMARK   92  A    between atoms: _224  and  _226
REMARK   93  A    between atoms: _226  and  _227
REMARK   94  A    between atoms: _226  and  _229
REMARK   95  A    between atoms: _229  and  _230
REMARK   96  A    between atoms: _230  and  _231
REMARK   97  A    between atoms: _231  and  _232
REMARK   98  A    between atoms: _232  and  _233
REMARK   99  A    between atoms: _237  and  _239
REMARK  100  A    between atoms: _239  and  _240
REMARK  101  A    between atoms: _239  and  _242
REMARK  102  A    between atoms: _242  and  _243
REMARK  103  A    between atoms: _248  and  _250
REMARK  104  A    between atoms: _250  and  _251
REMARK  105  A    between atoms: _253  and  _255
REMARK  106  A    between atoms: _255  and  _256
REMARK  107  A    between atoms: _255  and  _258
REMARK  108  A    between atoms: _258  and  _259
REMARK  109  A    between atoms: _262  and  _264
REMARK  110  A    between atoms: _264  and  _265
REMARK  111  A    between atoms: _264  and  _267
REMARK  112  A    between atoms: _267  and  _268
REMARK  113  A    between atoms: _271  and  _273
REMARK  114  A    between atoms: _273  and  _274
REMARK  115  A    between atoms: _273  and  _276
REMARK  116  A    between atoms: _276  and  _277
REMARK  117  A    between atoms: _277  and  _278
REMARK  118  A    between atoms: _278  and  _279
REMARK  119  A    between atoms: _288  and  _290
REMARK  120  A    between atoms: _290  and  _291
REMARK  121  A    between atoms: _290  and  _293
REMARK  122  A    between atoms: _293  and  _294
REMARK  123  A    between atoms: _299  and  _301
REMARK  124  A    between atoms: _301  and  _302
REMARK  125  A    between atoms: _301  and  _304
REMARK  126  A    between atoms: _304  and  _305
REMARK  127  A    between atoms: _311  and  _313
REMARK  128  A    between atoms: _313  and  _314
REMARK  129  A    between atoms: _313  and  _316
REMARK  130  A    between atoms: _316  and  _317
REMARK  131  A    between atoms: _322  and  _324
REMARK  132  A    between atoms: _324  and  _325
REMARK  133  A    between atoms: _324  and  _327
REMARK  134  A    between atoms: _327  and  _328
REMARK  135  A    between atoms: _331  and  _333
REMARK  136  A    between atoms: _333  and  _334
REMARK  137  A    between atoms: _337  and  _339
REMARK  138  A    between atoms: _339  and  _340
REMARK  139  A    between atoms: _343  and  _345
REMARK  140  A    between atoms: _345  and  _346
REMARK  141  A    between atoms: _345  and  _348
REMARK  142  A    between atoms: _348  and  _349
REMARK  143  A    between atoms: _349  and  _350
REMARK  144  A    between atoms: _350  and  _351
REMARK  145  A    between atoms: _360  and  _362
REMARK  146  A    between atoms: _362  and  _363
REMARK  147  A    between atoms: _362  and  _365
REMARK  148  A    between atoms: _365  and  _366
REMARK  149  A    between atoms: _371  and  _373
REMARK  150  A    between atoms: _373  and  _374
REMARK  151  A    between atoms: _373  and  _376
REMARK  152  A    between atoms: _378  and  _380
REMARK  153  A    between atoms: _380  and  _381
REMARK  154  A    between atoms: _380  and  _383
REMARK  155  A    between atoms: _383  and  _384
REMARK  156  A    between atoms: _384  and  _385
REMARK  157  A    between atoms: _387  and  _389
REMARK  158  A    between atoms: _389  and  _390
REMARK  159  A    between atoms: _389  and  _392
REMARK  160  A    between atoms: _392  and  _393
REMARK  161  A    between atoms: _396  and  _398
REMARK  162  A    between atoms: _398  and  _399
REMARK  163  A    between atoms: _398  and  _401
REMARK  164  A    between atoms: _401  and  _402
REMARK  165  A    between atoms: _405  and  _407
REMARK  166  A    between atoms: _407  and  _408
REMARK  167  A    between atoms: _407  and  _410
REMARK  168  A    between atoms: _410  and  _411
REMARK  169  A    between atoms: _411  and  _412
REMARK  170  A    between atoms: _412  and  _413
REMARK  171  A    between atoms: _413  and  _414
REMARK  172  A    between atoms: _418  and  _420
REMARK  173  A    between atoms: _420  and  _421
REMARK  174  A    between atoms: _420  and  _423
REMARK  175  A    between atoms: _426  and  _428
REMARK  176  A    between atoms: _428  and  _429
REMARK  177  A    between atoms: _432  and  _434
REMARK  178  A    between atoms: _434  and  _435
REMARK  179  A    between atoms: _434  and  _437
REMARK  180  A    between atoms: _437  and  _438
REMARK  181  A    between atoms: _441  and  _443
REMARK  182  A    between atoms: _443  and  _444
REMARK  183  A    between atoms: _443  and  _446
REMARK  184  A    between atoms: _446  and  _447
REMARK  185  A    between atoms: _453  and  _455
REMARK  186  A    between atoms: _455  and  _456
REMARK  187  A    between atoms: _455  and  _458
REMARK  188  A    between atoms: _458  and  _459
REMARK  189  A    between atoms: _462  and  _464
REMARK  190  A    between atoms: _464  and  _465
REMARK  191  A    between atoms: _468  and  _470
REMARK  192  A    between atoms: _470  and  _471
REMARK  193  A    between atoms: _470  and  _473
REMARK  194  A    between atoms: _473  and  _474
REMARK  195  A    between atoms: _474  and  _475
REMARK  196  A    between atoms: _475  and  _476
REMARK  197  A    between atoms: _485  and  _487
REMARK  198  A    between atoms: _487  and  _488
REMARK  199  A    between atoms: _487  and  _490
REMARK  200  A    between atoms: _490  and  _491
REMARK  201  A    between atoms: _494  and  _496
REMARK  202  A    between atoms: _496  and  _497
REMARK  203  A    between atoms: _496  and  _499
REMARK  204  A    between atoms: _499  and  _500
REMARK  205  A    between atoms: _500  and  _501
REMARK  206  A    between atoms: _503  and  _505
REMARK  207  A    between atoms: _505  and  _506
REMARK  208  A    between atoms: _505  and  _508
REMARK  209  A    between atoms: _508  and  _509
REMARK  210  A    between atoms: _514  and  _515
REMARK  211  A    between atoms: _517  and  _519
REMARK  212  A    between atoms: _519  and  _520
REMARK  213  A    between atoms: _519  and  _522
REMARK  214  A    between atoms: _522  and  _523
REMARK  215  A    between atoms: _526  and  _528
REMARK  216  A    between atoms: _528  and  _529
REMARK  217  A    between atoms: _528  and  _531
REMARK  218  A    between atoms: _531  and  _532
REMARK  219  A    between atoms: _537  and  _538
REMARK                            x       y       z     vdW  Elec       q    Type
REMARK                         _______ _______ _______ _____ _____    ______ ____
ROOT
ATOM      1  O   HOH     1      17.143  79.174   0.018  0.00  0.00    +0.000 OA
ENDROOT
TORSDOF 0
REMARK  Name = ../refined-set-2016/3zcl/3zcl_pocket.pdb
REMARK  219 active torsions:
REMARK  status: ('A' for Active; 'I' for Inactive)
REMARK    1  A    between atoms: _1  and  _3
REMARK    2  A    between atoms: _3  and  _4
REMARK    3  A    between atoms: _3  and  _6
REMARK    4  A    between atoms: _9  and  _11
REMARK    5  A    between atoms: _11  and  _12
REMARK    6  A    between atoms: _11  and  _14
REMARK    7  A    between atoms: _14  and  _15
REMARK    8  A    between atoms: _18  and  _20
REMARK    9  A    between atoms: _20  and  _21
REMARK   10  A    between atoms: _23  and  _25
REMARK   11  A    between atoms: _25  and  _26
REMARK   12  A    between atoms: _25  and  _28
REMARK   13  A    between atoms: _28  and  _29
REMARK   14  A    between atoms: _29  and  _30
REMARK   15  A    between atoms: _30  and  _31
REMARK   16  A    between atoms: _40  and  _42
REMARK   17  A    between atoms: _42  and  _43
REMARK   18  A    between atoms: _45  and  _47
REMARK   19  A    between atoms: _47  and  _48
REMARK   20  A    between atoms: _47  and  _50
REMARK   21  A    between atoms: _52  and  _54
REMARK   22  A    between atoms: _54  and  _55
REMARK   23  A    between atoms: _54  and  _57
REMARK   24  A    between atoms: _60  and  _62
REMARK   25  A    between atoms: _62  and  _63
REMARK   26  A    between atoms: _62  and  _65
REMARK   27  A    between atoms: _65  and  _66
REMARK   28  A    between atoms: _71  and  _72
REMARK   29  A    between atoms: _74  and  _76
REMARK   30  A    between atoms: _76  and  _77
REMARK   31  A    between atoms: _76  and  _79
REMARK   32  A    between atoms: _79  and  _80
REMARK   33  A    between atoms: _85  and  _87
REMARK   34  A    between atoms: _87  and  _88
REMARK   35  A    between atoms: _90  and  _92
REMARK   36  A    between atoms: _92  and  _93
REMARK   37  A    between atoms: _92  and  _95
REMARK   38  A    between atoms: _95  and  _96
REMARK   39  A    between atoms: _101  and  _103
REMARK   40  A    between atoms: _103  and  _104
REMARK   41  A    between atoms: _103  and  _106
REMARK   42  A    between atoms: _108  and  _110
REMARK   43  A    between atoms: _110  and  _111
REMARK   44  A    between atoms: _114  and  _116
REMARK   45  A    between atoms: _116  and  _117
REMARK   46  A    between atoms: _116  and  _119
REMARK   47  A    between atoms: _122  and  _124
REMARK   48  A    between atoms: _124  and  _125
REMARK   49  A    between atoms: _124  and  _127
REMARK   50  A    between atoms: _127  and  _128
REMARK   51  A    between atoms: _128  and  _129
REMARK   52  A    between atoms: _129  and  _130
REMARK   53  A    between atoms: _130  and  _131
REMARK   54  A    between atoms: _135  and  _137
REMARK   55  A    between atoms: _137  and  _138
REMARK   56  A    between atoms: _137  and  _140
REMARK   57  A    between atoms: _140  and  _141
REMARK   58  A    between atoms: _143  and  _145
REMARK   59  A    between atoms: _145  and  _146
REMARK   60  A    between atoms: _145  and  _148
REMARK   61  A    between atoms: _148  and  _149
REMARK   62  A    between atoms: _149  and  _150
REMARK   63  A    between atoms: _152  and  _154
REMARK   64  A    between atoms: _154  and  _155
REMARK   65  A    between atoms: _154  and  _157
REMARK   66  A    between atoms: _157  and  _158
REMARK   67  A    between atoms: _161  and  _163
REMARK   68  A    between atoms: _163  and  _164
REMARK   69  A    between atoms: _163  and  _166
REMARK   70  A    between atoms: _166  and  _167
REMARK   71  A    between atoms: _169  and  _171
REMARK   72  A    between atoms: _171  and  _172
REMARK   73  A    between atoms: _171  and  _174
REMARK   74  A    between atoms: _177  and  _179
REMARK   75  A    between atoms: _179  and  _180
REMARK   76  A    between atoms: _179  and  _182
REMARK   77  A    between atoms: _185  and  _187
REMARK   78  A    between atoms: _187  and  _188
REMARK   79  A    between atoms: _187  and  _190
REMARK   80  A    between atoms: _190  and  _191
REMARK   81  A    between atoms: _195  and  _196
REMARK   82  A    between atoms: _201  and  _203
REMARK   83  A    between atoms: _203  and  _204
REMARK   84  A    between atoms: _203  and  _206
REMARK   85  A    between atoms: _206  and  _207
REMARK   86  A    between atoms: _212  and  _213
REMARK   87  A    between atoms: _215  and  _217
REMARK   88  A    between atoms: _217  and  _218
REMARK   89  A    between atoms: _217  and  _220
REMARK   90  A    between atoms: _220  and  _221
REMARK   91  A    between atoms: _221  and  _222
REMARK   92  A    between atoms: _224  and  _226
REMARK   93  A    between atoms: _226  and  _227
REMARK   94  A    between atoms: _226  and  _229
REMARK   95  A    between atoms: _229  and  _230
REMARK   96  A    between atoms: _230  and  _231
REMARK   97  A    between atoms: _231  and  _232
REMARK   98  A    between atoms: _232  and  _233
REMARK   99  A    between atoms: _237  and  _239
REMARK  100  A    between atoms: _239  and  _240
REMARK  101  A    between atoms: _239  and  _242
REMARK  102  A    between atoms: _242  and  _243
REMARK  103  A    between atoms: _248  and  _250
REMARK  104  A    between atoms: _250  and  _251
REMARK  105  A    between atoms: _253  and  _255
REMARK  106  A    between atoms: _255  and  _256
REMARK  107  A    between atoms: _255  and  _258
REMARK  108  A    between atoms: _258  and  _259
REMARK  109  A    between atoms: _262  and  _264
REMARK  110  A    between atoms: _264  and  _265
REMARK  111  A    between atoms: _264  and  _267
REMARK  112  A    between atoms: _267  and  _268
REMARK  113  A    between atoms: _271  and  _273
REMARK  114  A    between atoms: _273  and  _274
REMARK  115  A    between atoms: _273  and  _276
REMARK  116  A    between atoms: _276  and  _277
REMARK  117  A    between atoms: _277  and  _278
REMARK  118  A    between atoms: _278  and  _279
REMARK  119  A    between atoms: _288  and  _290
REMARK  120  A    between atoms: _290  and  _291
REMARK  121  A    between atoms: _290  and  _293
REMARK  122  A    between atoms: _293  and  _294
REMARK  123  A    between atoms: _299  and  _301
REMARK  124  A    between atoms: _301  and  _302
REMARK  125  A    between atoms: _301  and  _304
REMARK  126  A    between atoms: _304  and  _305
REMARK  127  A    between atoms: _311  and  _313
REMARK  128  A    between atoms: _313  and  _314
REMARK  129  A    between atoms: _313  and  _316
REMARK  130  A    between atoms: _316  and  _317
REMARK  131  A    between atoms: _322  and  _324
REMARK  132  A    between atoms: _324  and  _325
REMARK  133  A    between atoms: _324  and  _327
REMARK  134  A    between atoms: _327  and  _328
REMARK  135  A    between atoms: _331  and  _333
REMARK  136  A    between atoms: _333  and  _334
REMARK  137  A    between atoms: _337  and  _339
REMARK  138  A    between atoms: _339  and  _340
REMARK  139  A    between atoms: _343  and  _345
REMARK  140  A    between atoms: _345  and  _346
REMARK  141  A    between atoms: _345  and  _348
REMARK  142  A    between atoms: _348  and  _349
REMARK  143  A    between atoms: _349  and  _350
REMARK  144  A    between atoms: _350  and  _351
REMARK  145  A    between atoms: _360  and  _362
REMARK  146  A    between atoms: _362  and  _363
REMARK  147  A    between atoms: _362  and  _365
REMARK  148  A    between atoms: _365  and  _366
REMARK  149  A    between atoms: _371  and  _373
REMARK  150  A    between atoms: _373  and  _374
REMARK  151  A    between atoms: _373  and  _376
REMARK  152  A    between atoms: _378  and  _380
REMARK  153  A    between atoms: _380  and  _381
REMARK  154  A    between atoms: _380  and  _383
REMARK  155  A    between atoms: _383  and  _384
REMARK  156  A    between atoms: _384  and  _385
REMARK  157  A    between atoms: _387  and  _389
REMARK  158  A    between atoms: _389  and  _390
REMARK  159  A    between atoms: _389  and  _392
REMARK  160  A    between atoms: _392  and  _393
REMARK  161  A    between atoms: _396  and  _398
REMARK  162  A    between atoms: _398  and  _399
REMARK  163  A    between atoms: _398  and  _401
REMARK  164  A    between atoms: _401  and  _402
REMARK  165  A    between atoms: _405  and  _407
REMARK  166  A    between atoms: _407  and  _408
REMARK  167  A    between atoms: _407  and  _410
REMARK  168  A    between atoms: _410  and  _411
REMARK  169  A    between atoms: _411  and  _412
REMARK  170  A    between atoms: _412  and  _413
REMARK  171  A    between atoms: _413  and  _414
REMARK  172  A    between atoms: _418  and  _420
REMARK  173  A    between atoms: _420  and  _421
REMARK  174  A    between atoms: _420  and  _423
REMARK  175  A    between atoms: _426  and  _428
REMARK  176  A    between atoms: _428  and  _429
REMARK  177  A    between atoms: _432  and  _434
REMARK  178  A    between atoms: _434  and  _435
REMARK  179  A    between atoms: _434  and  _437
REMARK  180  A    between atoms: _437  and  _438
REMARK  181  A    between atoms: _441  and  _443
REMARK  182  A    between atoms: _443  and  _444
REMARK  183  A    between atoms: _443  and  _446
REMARK  184  A    between atoms: _446  and  _447
REMARK  185  A    between atoms: _453  and  _455
REMARK  186  A    between atoms: _455  and  _456
REMARK  187  A    between atoms: _455  and  _458
REMARK  188  A    between atoms: _458  and  _459
REMARK  189  A    between atoms: _462  and  _464
REMARK  190  A    between atoms: _464  and  _465
REMARK  191  A    between atoms: _468  and  _470
REMARK  192  A    between atoms: _470  and  _471
REMARK  193  A    between atoms: _470  and  _473
REMARK  194  A    between atoms: _473  and  _474
REMARK  195  A    between atoms: _474  and  _475
REMARK  196  A    between atoms: _475  and  _476
REMARK  197  A    between atoms: _485  and  _487
REMARK  198  A    between atoms: _487  and  _488
REMARK  199  A    between atoms: _487  and  _490
REMARK  200  A    between atoms: _490  and  _491
REMARK  201  A    between atoms: _494  and  _496
REMARK  202  A    between atoms: _496  and  _497
REMARK  203  A    between atoms: _496  and  _499
REMARK  204  A    between atoms: _499  and  _500
REMARK  205  A    between atoms: _500  and  _501
REMARK  206  A    between atoms: _503  and  _505
REMARK  207  A    between atoms: _505  and  _506
REMARK  208  A    between atoms: _505  and  _508
REMARK  209  A    between atoms: _508  and  _509
REMARK  210  A    between atoms: _514  and  _515
REMARK  211  A    between atoms: _517  and  _519
REMARK  212  A    between atoms: _519  and  _520
REMARK  213  A    between atoms: _519  and  _522
REMARK  214  A    between atoms: _522  and  _523
REMARK  215  A    between atoms: _526  and  _528
REMARK  216  A    between atoms: _528  and  _529
REMARK  217  A    between atoms: _528  and  _531
REMARK  218  A    between atoms: _531  and  _532
REMARK  219  A    between atoms: _537  and  _538
REMARK                            x       y       z     vdW  Elec       q    Type
REMARK                         _______ _______ _______ _____ _____    ______ ____
ROOT
ATOM      1  O   HOH     1      22.949  84.489  -0.119  0.00  0.00    +0.000 OA
ENDROOT
TORSDOF 0
REMARK  Name = ../refined-set-2016/3zcl/3zcl_pocket.pdb
REMARK  219 active torsions:
REMARK  status: ('A' for Active; 'I' for Inactive)
REMARK    1  A    between atoms: _1  and  _3
REMARK    2  A    between atoms: _3  and  _4
REMARK    3  A    between atoms: _3  and  _6
REMARK    4  A    between atoms: _9  and  _11
REMARK    5  A    between atoms: _11  and  _12
REMARK    6  A    between atoms: _11  and  _14
REMARK    7  A    between atoms: _14  and  _15
REMARK    8  A    between atoms: _18  and  _20
REMARK    9  A    between atoms: _20  and  _21
REMARK   10  A    between atoms: _23  and  _25
REMARK   11  A    between atoms: _25  and  _26
REMARK   12  A    between atoms: _25  and  _28
REMARK   13  A    between atoms: _28  and  _29
REMARK   14  A    between atoms: _29  and  _30
REMARK   15  A    between atoms: _30  and  _31
REMARK   16  A    between atoms: _40  and  _42
REMARK   17  A    between atoms: _42  and  _43
REMARK   18  A    between atoms: _45  and  _47
REMARK   19  A    between atoms: _47  and  _48
REMARK   20  A    between atoms: _47  and  _50
REMARK   21  A    between atoms: _52  and  _54
REMARK   22  A    between atoms: _54  and  _55
REMARK   23  A    between atoms: _54  and  _57
REMARK   24  A    between atoms: _60  and  _62
REMARK   25  A    between atoms: _62  and  _63
REMARK   26  A    between atoms: _62  and  _65
REMARK   27  A    between atoms: _65  and  _66
REMARK   28  A    between atoms: _71  and  _72
REMARK   29  A    between atoms: _74  and  _76
REMARK   30  A    between atoms: _76  and  _77
REMARK   31  A    between atoms: _76  and  _79
REMARK   32  A    between atoms: _79  and  _80
REMARK   33  A    between atoms: _85  and  _87
REMARK   34  A    between atoms: _87  and  _88
REMARK   35  A    between atoms: _90  and  _92
REMARK   36  A    between atoms: _92  and  _93
REMARK   37  A    between atoms: _92  and  _95
REMARK   38  A    between atoms: _95  and  _96
REMARK   39  A    between atoms: _101  and  _103
REMARK   40  A    between atoms: _103  and  _104
REMARK   41  A    between atoms: _103  and  _106
REMARK   42  A    between atoms: _108  and  _110
REMARK   43  A    between atoms: _110  and  _111
REMARK   44  A    between atoms: _114  and  _116
REMARK   45  A    between atoms: _116  and  _117
REMARK   46  A    between atoms: _116  and  _119
REMARK   47  A    between atoms: _122  and  _124
REMARK   48  A    between atoms: _124  and  _125
REMARK   49  A    between atoms: _124  and  _127
REMARK   50  A    between atoms: _127  and  _128
REMARK   51  A    between atoms: _128  and  _129
REMARK   52  A    between atoms: _129  and  _130
REMARK   53  A    between atoms: _130  and  _131
REMARK   54  A    between atoms: _135  and  _137
REMARK   55  A    between atoms: _137  and  _138
REMARK   56  A    between atoms: _137  and  _140
REMARK   57  A    between atoms: _140  and  _141
REMARK   58  A    between atoms: _143  and  _145
REMARK   59  A    between atoms: _145  and  _146
REMARK   60  A    between atoms: _145  and  _148
REMARK   61  A    between atoms: _148  and  _149
REMARK   62  A    between atoms: _149  and  _150
REMARK   63  A    between atoms: _152  and  _154
REMARK   64  A    between atoms: _154  and  _155
REMARK   65  A    between atoms: _154  and  _157
REMARK   66  A    between atoms: _157  and  _158
REMARK   67  A    between atoms: _161  and  _163
REMARK   68  A    between atoms: _163  and  _164
REMARK   69  A    between atoms: _163  and  _166
REMARK   70  A    between atoms: _166  and  _167
REMARK   71  A    between atoms: _169  and  _171
REMARK   72  A    between atoms: _171  and  _172
REMARK   73  A    between atoms: _171  and  _174
REMARK   74  A    between atoms: _177  and  _179
REMARK   75  A    between atoms: _179  and  _180
REMARK   76  A    between atoms: _179  and  _182
REMARK   77  A    between atoms: _185  and  _187
REMARK   78  A    between atoms: _187  and  _188
REMARK   79  A    between atoms: _187  and  _190
REMARK   80  A    between atoms: _190  and  _191
REMARK   81  A    between atoms: _195  and  _196
REMARK   82  A    between atoms: _201  and  _203
REMARK   83  A    between atoms: _203  and  _204
REMARK   84  A    between atoms: _203  and  _206
REMARK   85  A    between atoms: _206  and  _207
REMARK   86  A    between atoms: _212  and  _213
REMARK   87  A    between atoms: _215  and  _217
REMARK   88  A    between atoms: _217  and  _218
REMARK   89  A    between atoms: _217  and  _220
REMARK   90  A    between atoms: _220  and  _221
REMARK   91  A    between atoms: _221  and  _222
REMARK   92  A    between atoms: _224  and  _226
REMARK   93  A    between atoms: _226  and  _227
REMARK   94  A    between atoms: _226  and  _229
REMARK   95  A    between atoms: _229  and  _230
REMARK   96  A    between atoms: _230  and  _231
REMARK   97  A    between atoms: _231  and  _232
REMARK   98  A    between atoms: _232  and  _233
REMARK   99  A    between atoms: _237  and  _239
REMARK  100  A    between atoms: _239  and  _240
REMARK  101  A    between atoms: _239  and  _242
REMARK  102  A    between atoms: _242  and  _243
REMARK  103  A    between atoms: _248  and  _250
REMARK  104  A    between atoms: _250  and  _251
REMARK  105  A    between atoms: _253  and  _255
REMARK  106  A    between atoms: _255  and  _256
REMARK  107  A    between atoms: _255  and  _258
REMARK  108  A    between atoms: _258  and  _259
REMARK  109  A    between atoms: _262  and  _264
REMARK  110  A    between atoms: _264  and  _265
REMARK  111  A    between atoms: _264  and  _267
REMARK  112  A    between atoms: _267  and  _268
REMARK  113  A    between atoms: _271  and  _273
REMARK  114  A    between atoms: _273  and  _274
REMARK  115  A    between atoms: _273  and  _276
REMARK  116  A    between atoms: _276  and  _277
REMARK  117  A    between atoms: _277  and  _278
REMARK  118  A    between atoms: _278  and  _279
REMARK  119  A    between atoms: _288  and  _290
REMARK  120  A    between atoms: _290  and  _291
REMARK  121  A    between atoms: _290  and  _293
REMARK  122  A    between atoms: _293  and  _294
REMARK  123  A    between atoms: _299  and  _301
REMARK  124  A    between atoms: _301  and  _302
REMARK  125  A    between atoms: _301  and  _304
REMARK  126  A    between atoms: _304  and  _305
REMARK  127  A    between atoms: _311  and  _313
REMARK  128  A    between atoms: _313  and  _314
REMARK  129  A    between atoms: _313  and  _316
REMARK  130  A    between atoms: _316  and  _317
REMARK  131  A    between atoms: _322  and  _324
REMARK  132  A    between atoms: _324  and  _325
REMARK  133  A    between atoms: _324  and  _327
REMARK  134  A    between atoms: _327  and  _328
REMARK  135  A    between atoms: _331  and  _333
REMARK  136  A    between atoms: _333  and  _334
REMARK  137  A    between atoms: _337  and  _339
REMARK  138  A    between atoms: _339  and  _340
REMARK  139  A    between atoms: _343  and  _345
REMARK  140  A    between atoms: _345  and  _346
REMARK  141  A    between atoms: _345  and  _348
REMARK  142  A    between atoms: _348  and  _349
REMARK  143  A    between atoms: _349  and  _350
REMARK  144  A    between atoms: _350  and  _351
REMARK  145  A    between atoms: _360  and  _362
REMARK  146  A    between atoms: _362  and  _363
REMARK  147  A    between atoms: _362  and  _365
REMARK  148  A    between atoms: _365  and  _366
REMARK  149  A    between atoms: _371  and  _373
REMARK  150  A    between atoms: _373  and  _374
REMARK  151  A    between atoms: _373  and  _376
REMARK  152  A    between atoms: _378  and  _380
REMARK  153  A    between atoms: _380  and  _381
REMARK  154  A    between atoms: _380  and  _383
REMARK  155  A    between atoms: _383  and  _384
REMARK  156  A    between atoms: _384  and  _385
REMARK  157  A    between atoms: _387  and  _389
REMARK  158  A    between atoms: _389  and  _390
REMARK  159  A    between atoms: _389  and  _392
REMARK  160  A    between atoms: _392  and  _393
REMARK  161  A    between atoms: _396  and  _398
REMARK  162  A    between atoms: _398  and  _399
REMARK  163  A    between atoms: _398  and  _401
REMARK  164  A    between atoms: _401  and  _402
REMARK  165  A    between atoms: _405  and  _407
REMARK  166  A    between atoms: _407  and  _408
REMARK  167  A    between atoms: _407  and  _410
REMARK  168  A    between atoms: _410  and  _411
REMARK  169  A    between atoms: _411  and  _412
REMARK  170  A    between atoms: _412  and  _413
REMARK  171  A    between atoms: _413  and  _414
REMARK  172  A    between atoms: _418  and  _420
REMARK  173  A    between atoms: _420  and  _421
REMARK  174  A    between atoms: _420  and  _423
REMARK  175  A    between atoms: _426  and  _428
REMARK  176  A    between atoms: _428  and  _429
REMARK  177  A    between atoms: _432  and  _434
REMARK  178  A    between atoms: _434  and  _435
REMARK  179  A    between atoms: _434  and  _437
REMARK  180  A    between atoms: _437  and  _438
REMARK  181  A    between atoms: _441  and  _443
REMARK  182  A    between atoms: _443  and  _444
REMARK  183  A    between atoms: _443  and  _446
REMARK  184  A    between atoms: _446  and  _447
REMARK  185  A    between atoms: _453  and  _455
REMARK  186  A    between atoms: _455  and  _456
REMARK  187  A    between atoms: _455  and  _458
REMARK  188  A    between atoms: _458  and  _459
REMARK  189  A    between atoms: _462  and  _464
REMARK  190  A    between atoms: _464  and  _465
REMARK  191  A    between atoms: _468  and  _470
REMARK  192  A    between atoms: _470  and  _471
REMARK  193  A    between atoms: _470  and  _473
REMARK  194  A    between atoms: _473  and  _474
REMARK  195  A    between atoms: _474  and  _475
REMARK  196  A    between atoms: _475  and  _476
REMARK  197  A    between atoms: _485  and  _487
REMARK  198  A    between atoms: _487  and  _488
REMARK  199  A    between atoms: _487  and  _490
REMARK  200  A    between atoms: _490  and  _491
REMARK  201  A    between atoms: _494  and  _496
REMARK  202  A    between atoms: _496  and  _497
REMARK  203  A    between atoms: _496  and  _499
REMARK  204  A    between atoms: _499  and  _500
REMARK  205  A    between atoms: _500  and  _501
REMARK  206  A    between atoms: _503  and  _505
REMARK  207  A    between atoms: _505  and  _506
REMARK  208  A    between atoms: _505  and  _508
REMARK  209  A    between atoms: _508  and  _509
REMARK  210  A    between atoms: _514  and  _515
REMARK  211  A    between atoms: _517  and  _519
REMARK  212  A    between atoms: _519  and  _520
REMARK  213  A    between atoms: _519  and  _522
REMARK  214  A    between atoms: _522  and  _523
REMARK  215  A    between atoms: _526  and  _528
REMARK  216  A    between atoms: _528  and  _529
REMARK  217  A    between atoms: _528  and  _531
REMARK  218  A    between atoms: _531  and  _532
REMARK  219  A    between atoms: _537  and  _538
REMARK                            x       y       z     vdW  Elec       q    Type
REMARK                         _______ _______ _______ _____ _____    ______ ____
ROOT
ATOM      1  O   HOH     1      16.084  84.110  -0.405  0.00  0.00    +0.000 OA
ENDROOT
TORSDOF 0
REMARK  Name = ../refined-set-2016/3zcl/3zcl_pocket.pdb
REMARK  219 active torsions:
REMARK  status: ('A' for Active; 'I' for Inactive)
REMARK    1  A    between atoms: _1  and  _3
REMARK    2  A    between atoms: _3  and  _4
REMARK    3  A    between atoms: _3  and  _6
REMARK    4  A    between atoms: _9  and  _11
REMARK    5  A    between atoms: _11  and  _12
REMARK    6  A    between atoms: _11  and  _14
REMARK    7  A    between atoms: _14  and  _15
REMARK    8  A    between atoms: _18  and  _20
REMARK    9  A    between atoms: _20  and  _21
REMARK   10  A    between atoms: _23  and  _25
REMARK   11  A    between atoms: _25  and  _26
REMARK   12  A    between atoms: _25  and  _28
REMARK   13  A    between atoms: _28  and  _29
REMARK   14  A    between atoms: _29  and  _30
REMARK   15  A    between atoms: _30  and  _31
REMARK   16  A    between atoms: _40  and  _42
REMARK   17  A    between atoms: _42  and  _43
REMARK   18  A    between atoms: _45  and  _47
REMARK   19  A    between atoms: _47  and  _48
REMARK   20  A    between atoms: _47  and  _50
REMARK   21  A    between atoms: _52  and  _54
REMARK   22  A    between atoms: _54  and  _55
REMARK   23  A    between atoms: _54  and  _57
REMARK   24  A    between atoms: _60  and  _62
REMARK   25  A    between atoms: _62  and  _63
REMARK   26  A    between atoms: _62  and  _65
REMARK   27  A    between atoms: _65  and  _66
REMARK   28  A    between atoms: _71  and  _72
REMARK   29  A    between atoms: _74  and  _76
REMARK   30  A    between atoms: _76  and  _77
REMARK   31  A    between atoms: _76  and  _79
REMARK   32  A    between atoms: _79  and  _80
REMARK   33  A    between atoms: _85  and  _87
REMARK   34  A    between atoms: _87  and  _88
REMARK   35  A    between atoms: _90  and  _92
REMARK   36  A    between atoms: _92  and  _93
REMARK   37  A    between atoms: _92  and  _95
REMARK   38  A    between atoms: _95  and  _96
REMARK   39  A    between atoms: _101  and  _103
REMARK   40  A    between atoms: _103  and  _104
REMARK   41  A    between atoms: _103  and  _106
REMARK   42  A    between atoms: _108  and  _110
REMARK   43  A    between atoms: _110  and  _111
REMARK   44  A    between atoms: _114  and  _116
REMARK   45  A    between atoms: _116  and  _117
REMARK   46  A    between atoms: _116  and  _119
REMARK   47  A    between atoms: _122  and  _124
REMARK   48  A    between atoms: _124  and  _125
REMARK   49  A    between atoms: _124  and  _127
REMARK   50  A    between atoms: _127  and  _128
REMARK   51  A    between atoms: _128  and  _129
REMARK   52  A    between atoms: _129  and  _130
REMARK   53  A    between atoms: _130  and  _131
REMARK   54  A    between atoms: _135  and  _137
REMARK   55  A    between atoms: _137  and  _138
REMARK   56  A    between atoms: _137  and  _140
REMARK   57  A    between atoms: _140  and  _141
REMARK   58  A    between atoms: _143  and  _145
REMARK   59  A    between atoms: _145  and  _146
REMARK   60  A    between atoms: _145  and  _148
REMARK   61  A    between atoms: _148  and  _149
REMARK   62  A    between atoms: _149  and  _150
REMARK   63  A    between atoms: _152  and  _154
REMARK   64  A    between atoms: _154  and  _155
REMARK   65  A    between atoms: _154  and  _157
REMARK   66  A    between atoms: _157  and  _158
REMARK   67  A    between atoms: _161  and  _163
REMARK   68  A    between atoms: _163  and  _164
REMARK   69  A    between atoms: _163  and  _166
REMARK   70  A    between atoms: _166  and  _167
REMARK   71  A    between atoms: _169  and  _171
REMARK   72  A    between atoms: _171  and  _172
REMARK   73  A    between atoms: _171  and  _174
REMARK   74  A    between atoms: _177  and  _179
REMARK   75  A    between atoms: _179  and  _180
REMARK   76  A    between atoms: _179  and  _182
REMARK   77  A    between atoms: _185  and  _187
REMARK   78  A    between atoms: _187  and  _188
REMARK   79  A    between atoms: _187  and  _190
REMARK   80  A    between atoms: _190  and  _191
REMARK   81  A    between atoms: _195  and  _196
REMARK   82  A    between atoms: _201  and  _203
REMARK   83  A    between atoms: _203  and  _204
REMARK   84  A    between atoms: _203  and  _206
REMARK   85  A    between atoms: _206  and  _207
REMARK   86  A    between atoms: _212  and  _213
REMARK   87  A    between atoms: _215  and  _217
REMARK   88  A    between atoms: _217  and  _218
REMARK   89  A    between atoms: _217  and  _220
REMARK   90  A    between atoms: _220  and  _221
REMARK   91  A    between atoms: _221  and  _222
REMARK   92  A    between atoms: _224  and  _226
REMARK   93  A    between atoms: _226  and  _227
REMARK   94  A    between atoms: _226  and  _229
REMARK   95  A    between atoms: _229  and  _230
REMARK   96  A    between atoms: _230  and  _231
REMARK   97  A    between atoms: _231  and  _232
REMARK   98  A    between atoms: _232  and  _233
REMARK   99  A    between atoms: _237  and  _239
REMARK  100  A    between atoms: _239  and  _240
REMARK  101  A    between atoms: _239  and  _242
REMARK  102  A    between atoms: _242  and  _243
REMARK  103  A    between atoms: _248  and  _250
REMARK  104  A    between atoms: _250  and  _251
REMARK  105  A    between atoms: _253  and  _255
REMARK  106  A    between atoms: _255  and  _256
REMARK  107  A    between atoms: _255  and  _258
REMARK  108  A    between atoms: _258  and  _259
REMARK  109  A    between atoms: _262  and  _264
REMARK  110  A    between atoms: _264  and  _265
REMARK  111  A    between atoms: _264  and  _267
REMARK  112  A    between atoms: _267  and  _268
REMARK  113  A    between atoms: _271  and  _273
REMARK  114  A    between atoms: _273  and  _274
REMARK  115  A    between atoms: _273  and  _276
REMARK  116  A    between atoms: _276  and  _277
REMARK  117  A    between atoms: _277  and  _278
REMARK  118  A    between atoms: _278  and  _279
REMARK  119  A    between atoms: _288  and  _290
REMARK  120  A    between atoms: _290  and  _291
REMARK  121  A    between atoms: _290  and  _293
REMARK  122  A    between atoms: _293  and  _294
REMARK  123  A    between atoms: _299  and  _301
REMARK  124  A    between atoms: _301  and  _302
REMARK  125  A    between atoms: _301  and  _304
REMARK  126  A    between atoms: _304  and  _305
REMARK  127  A    between atoms: _311  and  _313
REMARK  128  A    between atoms: _313  and  _314
REMARK  129  A    between atoms: _313  and  _316
REMARK  130  A    between atoms: _316  and  _317
REMARK  131  A    between atoms: _322  and  _324
REMARK  132  A    between atoms: _324  and  _325
REMARK  133  A    between atoms: _324  and  _327
REMARK  134  A    between atoms: _327  and  _328
REMARK  135  A    between atoms: _331  and  _333
REMARK  136  A    between atoms: _333  and  _334
REMARK  137  A    between atoms: _337  and  _339
REMARK  138  A    between atoms: _339  and  _340
REMARK  139  A    between atoms: _343  and  _345
REMARK  140  A    between atoms: _345  and  _346
REMARK  141  A    between atoms: _345  and  _348
REMARK  142  A    between atoms: _348  and  _349
REMARK  143  A    between atoms: _349  and  _350
REMARK  144  A    between atoms: _350  and  _351
REMARK  145  A    between atoms: _360  and  _362
REMARK  146  A    between atoms: _362  and  _363
REMARK  147  A    between atoms: _362  and  _365
REMARK  148  A    between atoms: _365  and  _366
REMARK  149  A    between atoms: _371  and  _373
REMARK  150  A    between atoms: _373  and  _374
REMARK  151  A    between atoms: _373  and  _376
REMARK  152  A    between atoms: _378  and  _380
REMARK  153  A    between atoms: _380  and  _381
REMARK  154  A    between atoms: _380  and  _383
REMARK  155  A    between atoms: _383  and  _384
REMARK  156  A    between atoms: _384  and  _385
REMARK  157  A    between atoms: _387  and  _389
REMARK  158  A    between atoms: _389  and  _390
REMARK  159  A    between atoms: _389  and  _392
REMARK  160  A    between atoms: _392  and  _393
REMARK  161  A    between atoms: _396  and  _398
REMARK  162  A    between atoms: _398  and  _399
REMARK  163  A    between atoms: _398  and  _401
REMARK  164  A    between atoms: _401  and  _402
REMARK  165  A    between atoms: _405  and  _407
REMARK  166  A    between atoms: _407  and  _408
REMARK  167  A    between atoms: _407  and  _410
REMARK  168  A    between atoms: _410  and  _411
REMARK  169  A    between atoms: _411  and  _412
REMARK  170  A    between atoms: _412  and  _413
REMARK  171  A    between atoms: _413  and  _414
REMARK  172  A    between atoms: _418  and  _420
REMARK  173  A    between atoms: _420  and  _421
REMARK  174  A    between atoms: _420  and  _423
REMARK  175  A    between atoms: _426  and  _428
REMARK  176  A    between atoms: _428  and  _429
REMARK  177  A    between atoms: _432  and  _434
REMARK  178  A    between atoms: _434  and  _435
REMARK  179  A    between atoms: _434  and  _437
REMARK  180  A    between atoms: _437  and  _438
REMARK  181  A    between atoms: _441  and  _443
REMARK  182  A    between atoms: _443  and  _444
REMARK  183  A    between atoms: _443  and  _446
REMARK  184  A    between atoms: _446  and  _447
REMARK  185  A    between atoms: _453  and  _455
REMARK  186  A    between atoms: _455  and  _456
REMARK  187  A    between atoms: _455  and  _458
REMARK  188  A    between atoms: _458  and  _459
REMARK  189  A    between atoms: _462  and  _464
REMARK  190  A    between atoms: _464  and  _465
REMARK  191  A    between atoms: _468  and  _470
REMARK  192  A    between atoms: _470  and  _471
REMARK  193  A    between atoms: _470  and  _473
REMARK  194  A    between atoms: _473  and  _474
REMARK  195  A    between atoms: _474  and  _475
REMARK  196  A    between atoms: _475  and  _476
REMARK  197  A    between atoms: _485  and  _487
REMARK  198  A    between atoms: _487  and  _488
REMARK  199  A    between atoms: _487  and  _490
REMARK  200  A    between atoms: _490  and  _491
REMARK  201  A    between atoms: _494  and  _496
REMARK  202  A    between atoms: _496  and  _497
REMARK  203  A    between atoms: _496  and  _499
REMARK  204  A    between atoms: _499  and  _500
REMARK  205  A    between atoms: _500  and  _501
REMARK  206  A    between atoms: _503  and  _505
REMARK  207  A    between atoms: _505  and  _506
REMARK  208  A    between atoms: _505  and  _508
REMARK  209  A    between atoms: _508  and  _509
REMARK  210  A    between atoms: _514  and  _515
REMARK  211  A    between atoms: _517  and  _519
REMARK  212  A    between atoms: _519  and  _520
REMARK  213  A    between atoms: _519  and  _522
REMARK  214  A    between atoms: _522  and  _523
REMARK  215  A    between atoms: _526  and  _528
REMARK  216  A    between atoms: _528  and  _529
REMARK  217  A    between atoms: _528  and  _531
REMARK  218  A    between atoms: _531  and  _532
REMARK  219  A    between atoms: _537  and  _538
REMARK                            x       y       z     vdW  Elec       q    Type
REMARK                         _______ _______ _______ _____ _____    ______ ____
ROOT
ATOM      1  O   HOH     1      29.460  89.203  10.768  0.00  0.00    +0.000 OA
ENDROOT
TORSDOF 0
REMARK  Name = ../refined-set-2016/3zcl/3zcl_pocket.pdb
REMARK  219 active torsions:
REMARK  status: ('A' for Active; 'I' for Inactive)
REMARK    1  A    between atoms: _1  and  _3
REMARK    2  A    between atoms: _3  and  _4
REMARK    3  A    between atoms: _3  and  _6
REMARK    4  A    between atoms: _9  and  _11
REMARK    5  A    between atoms: _11  and  _12
REMARK    6  A    between atoms: _11  and  _14
REMARK    7  A    between atoms: _14  and  _15
REMARK    8  A    between atoms: _18  and  _20
REMARK    9  A    between atoms: _20  and  _21
REMARK   10  A    between atoms: _23  and  _25
REMARK   11  A    between atoms: _25  and  _26
REMARK   12  A    between atoms: _25  and  _28
REMARK   13  A    between atoms: _28  and  _29
REMARK   14  A    between atoms: _29  and  _30
REMARK   15  A    between atoms: _30  and  _31
REMARK   16  A    between atoms: _40  and  _42
REMARK   17  A    between atoms: _42  and  _43
REMARK   18  A    between atoms: _45  and  _47
REMARK   19  A    between atoms: _47  and  _48
REMARK   20  A    between atoms: _47  and  _50
REMARK   21  A    between atoms: _52  and  _54
REMARK   22  A    between atoms: _54  and  _55
REMARK   23  A    between atoms: _54  and  _57
REMARK   24  A    between atoms: _60  and  _62
REMARK   25  A    between atoms: _62  and  _63
REMARK   26  A    between atoms: _62  and  _65
REMARK   27  A    between atoms: _65  and  _66
REMARK   28  A    between atoms: _71  and  _72
REMARK   29  A    between atoms: _74  and  _76
REMARK   30  A    between atoms: _76  and  _77
REMARK   31  A    between atoms: _76  and  _79
REMARK   32  A    between atoms: _79  and  _80
REMARK   33  A    between atoms: _85  and  _87
REMARK   34  A    between atoms: _87  and  _88
REMARK   35  A    between atoms: _90  and  _92
REMARK   36  A    between atoms: _92  and  _93
REMARK   37  A    between atoms: _92  and  _95
REMARK   38  A    between atoms: _95  and  _96
REMARK   39  A    between atoms: _101  and  _103
REMARK   40  A    between atoms: _103  and  _104
REMARK   41  A    between atoms: _103  and  _106
REMARK   42  A    between atoms: _108  and  _110
REMARK   43  A    between atoms: _110  and  _111
REMARK   44  A    between atoms: _114  and  _116
REMARK   45  A    between atoms: _116  and  _117
REMARK   46  A    between atoms: _116  and  _119
REMARK   47  A    between atoms: _122  and  _124
REMARK   48  A    between atoms: _124  and  _125
REMARK   49  A    between atoms: _124  and  _127
REMARK   50  A    between atoms: _127  and  _128
REMARK   51  A    between atoms: _128  and  _129
REMARK   52  A    between atoms: _129  and  _130
REMARK   53  A    between atoms: _130  and  _131
REMARK   54  A    between atoms: _135  and  _137
REMARK   55  A    between atoms: _137  and  _138
REMARK   56  A    between atoms: _137  and  _140
REMARK   57  A    between atoms: _140  and  _141
REMARK   58  A    between atoms: _143  and  _145
REMARK   59  A    between atoms: _145  and  _146
REMARK   60  A    between atoms: _145  and  _148
REMARK   61  A    between atoms: _148  and  _149
REMARK   62  A    between atoms: _149  and  _150
REMARK   63  A    between atoms: _152  and  _154
REMARK   64  A    between atoms: _154  and  _155
REMARK   65  A    between atoms: _154  and  _157
REMARK   66  A    between atoms: _157  and  _158
REMARK   67  A    between atoms: _161  and  _163
REMARK   68  A    between atoms: _163  and  _164
REMARK   69  A    between atoms: _163  and  _166
REMARK   70  A    between atoms: _166  and  _167
REMARK   71  A    between atoms: _169  and  _171
REMARK   72  A    between atoms: _171  and  _172
REMARK   73  A    between atoms: _171  and  _174
REMARK   74  A    between atoms: _177  and  _179
REMARK   75  A    between atoms: _179  and  _180
REMARK   76  A    between atoms: _179  and  _182
REMARK   77  A    between atoms: _185  and  _187
REMARK   78  A    between atoms: _187  and  _188
REMARK   79  A    between atoms: _187  and  _190
REMARK   80  A    between atoms: _190  and  _191
REMARK   81  A    between atoms: _195  and  _196
REMARK   82  A    between atoms: _201  and  _203
REMARK   83  A    between atoms: _203  and  _204
REMARK   84  A    between atoms: _203  and  _206
REMARK   85  A    between atoms: _206  and  _207
REMARK   86  A    between atoms: _212  and  _213
REMARK   87  A    between atoms: _215  and  _217
REMARK   88  A    between atoms: _217  and  _218
REMARK   89  A    between atoms: _217  and  _220
REMARK   90  A    between atoms: _220  and  _221
REMARK   91  A    between atoms: _221  and  _222
REMARK   92  A    between atoms: _224  and  _226
REMARK   93  A    between atoms: _226  and  _227
REMARK   94  A    between atoms: _226  and  _229
REMARK   95  A    between atoms: _229  and  _230
REMARK   96  A    between atoms: _230  and  _231
REMARK   97  A    between atoms: _231  and  _232
REMARK   98  A    between atoms: _232  and  _233
REMARK   99  A    between atoms: _237  and  _239
REMARK  100  A    between atoms: _239  and  _240
REMARK  101  A    between atoms: _239  and  _242
REMARK  102  A    between atoms: _242  and  _243
REMARK  103  A    between atoms: _248  and  _250
REMARK  104  A    between atoms: _250  and  _251
REMARK  105  A    between atoms: _253  and  _255
REMARK  106  A    between atoms: _255  and  _256
REMARK  107  A    between atoms: _255  and  _258
REMARK  108  A    between atoms: _258  and  _259
REMARK  109  A    between atoms: _262  and  _264
REMARK  110  A    between atoms: _264  and  _265
REMARK  111  A    between atoms: _264  and  _267
REMARK  112  A    between atoms: _267  and  _268
REMARK  113  A    between atoms: _271  and  _273
REMARK  114  A    between atoms: _273  and  _274
REMARK  115  A    between atoms: _273  and  _276
REMARK  116  A    between atoms: _276  and  _277
REMARK  117  A    between atoms: _277  and  _278
REMARK  118  A    between atoms: _278  and  _279
REMARK  119  A    between atoms: _288  and  _290
REMARK  120  A    between atoms: _290  and  _291
REMARK  121  A    between atoms: _290  and  _293
REMARK  122  A    between atoms: _293  and  _294
REMARK  123  A    between atoms: _299  and  _301
REMARK  124  A    between atoms: _301  and  _302
REMARK  125  A    between atoms: _301  and  _304
REMARK  126  A    between atoms: _304  and  _305
REMARK  127  A    between atoms: _311  and  _313
REMARK  128  A    between atoms: _313  and  _314
REMARK  129  A    between atoms: _313  and  _316
REMARK  130  A    between atoms: _316  and  _317
REMARK  131  A    between atoms: _322  and  _324
REMARK  132  A    between atoms: _324  and  _325
REMARK  133  A    between atoms: _324  and  _327
REMARK  134  A    between atoms: _327  and  _328
REMARK  135  A    between atoms: _331  and  _333
REMARK  136  A    between atoms: _333  and  _334
REMARK  137  A    between atoms: _337  and  _339
REMARK  138  A    between atoms: _339  and  _340
REMARK  139  A    between atoms: _343  and  _345
REMARK  140  A    between atoms: _345  and  _346
REMARK  141  A    between atoms: _345  and  _348
REMARK  142  A    between atoms: _348  and  _349
REMARK  143  A    between atoms: _349  and  _350
REMARK  144  A    between atoms: _350  and  _351
REMARK  145  A    between atoms: _360  and  _362
REMARK  146  A    between atoms: _362  and  _363
REMARK  147  A    between atoms: _362  and  _365
REMARK  148  A    between atoms: _365  and  _366
REMARK  149  A    between atoms: _371  and  _373
REMARK  150  A    between atoms: _373  and  _374
REMARK  151  A    between atoms: _373  and  _376
REMARK  152  A    between atoms: _378  and  _380
REMARK  153  A    between atoms: _380  and  _381
REMARK  154  A    between atoms: _380  and  _383
REMARK  155  A    between atoms: _383  and  _384
REMARK  156  A    between atoms: _384  and  _385
REMARK  157  A    between atoms: _387  and  _389
REMARK  158  A    between atoms: _389  and  _390
REMARK  159  A    between atoms: _389  and  _392
REMARK  160  A    between atoms: _392  and  _393
REMARK  161  A    between atoms: _396  and  _398
REMARK  162  A    between atoms: _398  and  _399
REMARK  163  A    between atoms: _398  and  _401
REMARK  164  A    between atoms: _401  and  _402
REMARK  165  A    between atoms: _405  and  _407
REMARK  166  A    between atoms: _407  and  _408
REMARK  167  A    between atoms: _407  and  _410
REMARK  168  A    between atoms: _410  and  _411
REMARK  169  A    between atoms: _411  and  _412
REMARK  170  A    between atoms: _412  and  _413
REMARK  171  A    between atoms: _413  and  _414
REMARK  172  A    between atoms: _418  and  _420
REMARK  173  A    between atoms: _420  and  _421
REMARK  174  A    between atoms: _420  and  _423
REMARK  175  A    between atoms: _426  and  _428
REMARK  176  A    between atoms: _428  and  _429
REMARK  177  A    between atoms: _432  and  _434
REMARK  178  A    between atoms: _434  and  _435
REMARK  179  A    between atoms: _434  and  _437
REMARK  180  A    between atoms: _437  and  _438
REMARK  181  A    between atoms: _441  and  _443
REMARK  182  A    between atoms: _443  and  _444
REMARK  183  A    between atoms: _443  and  _446
REMARK  184  A    between atoms: _446  and  _447
REMARK  185  A    between atoms: _453  and  _455
REMARK  186  A    between atoms: _455  and  _456
REMARK  187  A    between atoms: _455  and  _458
REMARK  188  A    between atoms: _458  and  _459
REMARK  189  A    between atoms: _462  and  _464
REMARK  190  A    between atoms: _464  and  _465
REMARK  191  A    between atoms: _468  and  _470
REMARK  192  A    between atoms: _470  and  _471
REMARK  193  A    between atoms: _470  and  _473
REMARK  194  A    between atoms: _473  and  _474
REMARK  195  A    between atoms: _474  and  _475
REMARK  196  A    between atoms: _475  and  _476
REMARK  197  A    between atoms: _485  and  _487
REMARK  198  A    between atoms: _487  and  _488
REMARK  199  A    between atoms: _487  and  _490
REMARK  200  A    between atoms: _490  and  _491
REMARK  201  A    between atoms: _494  and  _496
REMARK  202  A    between atoms: _496  and  _497
REMARK  203  A    between atoms: _496  and  _499
REMARK  204  A    between atoms: _499  and  _500
REMARK  205  A    between atoms: _500  and  _501
REMARK  206  A    between atoms: _503  and  _505
REMARK  207  A    between atoms: _505  and  _506
REMARK  208  A    between atoms: _505  and  _508
REMARK  209  A    between atoms: _508  and  _509
REMARK  210  A    between atoms: _514  and  _515
REMARK  211  A    between atoms: _517  and  _519
REMARK  212  A    between atoms: _519  and  _520
REMARK  213  A    between atoms: _519  and  _522
REMARK  214  A    between atoms: _522  and  _523
REMARK  215  A    between atoms: _526  and  _528
REMARK  216  A    between atoms: _528  and  _529
REMARK  217  A    between atoms: _528  and  _531
REMARK  218  A    between atoms: _531  and  _532
REMARK  219  A    between atoms: _537  and  _538
REMARK                            x       y       z     vdW  Elec       q    Type
REMARK                         _______ _______ _______ _____ _____    ______ ____
ROOT
ATOM      1  O   HOH     1      13.084  88.982   9.147  0.00  0.00    +0.000 OA
ENDROOT
TORSDOF 0
REMARK  Name = ../refined-set-2016/3zcl/3zcl_pocket.pdb
REMARK  219 active torsions:
REMARK  status: ('A' for Active; 'I' for Inactive)
REMARK    1  A    between atoms: _1  and  _3
REMARK    2  A    between atoms: _3  and  _4
REMARK    3  A    between atoms: _3  and  _6
REMARK    4  A    between atoms: _9  and  _11
REMARK    5  A    between atoms: _11  and  _12
REMARK    6  A    between atoms: _11  and  _14
REMARK    7  A    between atoms: _14  and  _15
REMARK    8  A    between atoms: _18  and  _20
REMARK    9  A    between atoms: _20  and  _21
REMARK   10  A    between atoms: _23  and  _25
REMARK   11  A    between atoms: _25  and  _26
REMARK   12  A    between atoms: _25  and  _28
REMARK   13  A    between atoms: _28  and  _29
REMARK   14  A    between atoms: _29  and  _30
REMARK   15  A    between atoms: _30  and  _31
REMARK   16  A    between atoms: _40  and  _42
REMARK   17  A    between atoms: _42  and  _43
REMARK   18  A    between atoms: _45  and  _47
REMARK   19  A    between atoms: _47  and  _48
REMARK   20  A    between atoms: _47  and  _50
REMARK   21  A    between atoms: _52  and  _54
REMARK   22  A    between atoms: _54  and  _55
REMARK   23  A    between atoms: _54  and  _57
REMARK   24  A    between atoms: _60  and  _62
REMARK   25  A    between atoms: _62  and  _63
REMARK   26  A    between atoms: _62  and  _65
REMARK   27  A    between atoms: _65  and  _66
REMARK   28  A    between atoms: _71  and  _72
REMARK   29  A    between atoms: _74  and  _76
REMARK   30  A    between atoms: _76  and  _77
REMARK   31  A    between atoms: _76  and  _79
REMARK   32  A    between atoms: _79  and  _80
REMARK   33  A    between atoms: _85  and  _87
REMARK   34  A    between atoms: _87  and  _88
REMARK   35  A    between atoms: _90  and  _92
REMARK   36  A    between atoms: _92  and  _93
REMARK   37  A    between atoms: _92  and  _95
REMARK   38  A    between atoms: _95  and  _96
REMARK   39  A    between atoms: _101  and  _103
REMARK   40  A    between atoms: _103  and  _104
REMARK   41  A    between atoms: _103  and  _106
REMARK   42  A    between atoms: _108  and  _110
REMARK   43  A    between atoms: _110  and  _111
REMARK   44  A    between atoms: _114  and  _116
REMARK   45  A    between atoms: _116  and  _117
REMARK   46  A    between atoms: _116  and  _119
REMARK   47  A    between atoms: _122  and  _124
REMARK   48  A    between atoms: _124  and  _125
REMARK   49  A    between atoms: _124  and  _127
REMARK   50  A    between atoms: _127  and  _128
REMARK   51  A    between atoms: _128  and  _129
REMARK   52  A    between atoms: _129  and  _130
REMARK   53  A    between atoms: _130  and  _131
REMARK   54  A    between atoms: _135  and  _137
REMARK   55  A    between atoms: _137  and  _138
REMARK   56  A    between atoms: _137  and  _140
REMARK   57  A    between atoms: _140  and  _141
REMARK   58  A    between atoms: _143  and  _145
REMARK   59  A    between atoms: _145  and  _146
REMARK   60  A    between atoms: _145  and  _148
REMARK   61  A    between atoms: _148  and  _149
REMARK   62  A    between atoms: _149  and  _150
REMARK   63  A    between atoms: _152  and  _154
REMARK   64  A    between atoms: _154  and  _155
REMARK   65  A    between atoms: _154  and  _157
REMARK   66  A    between atoms: _157  and  _158
REMARK   67  A    between atoms: _161  and  _163
REMARK   68  A    between atoms: _163  and  _164
REMARK   69  A    between atoms: _163  and  _166
REMARK   70  A    between atoms: _166  and  _167
REMARK   71  A    between atoms: _169  and  _171
REMARK   72  A    between atoms: _171  and  _172
REMARK   73  A    between atoms: _171  and  _174
REMARK   74  A    between atoms: _177  and  _179
REMARK   75  A    between atoms: _179  and  _180
REMARK   76  A    between atoms: _179  and  _182
REMARK   77  A    between atoms: _185  and  _187
REMARK   78  A    between atoms: _187  and  _188
REMARK   79  A    between atoms: _187  and  _190
REMARK   80  A    between atoms: _190  and  _191
REMARK   81  A    between atoms: _195  and  _196
REMARK   82  A    between atoms: _201  and  _203
REMARK   83  A    between atoms: _203  and  _204
REMARK   84  A    between atoms: _203  and  _206
REMARK   85  A    between atoms: _206  and  _207
REMARK   86  A    between atoms: _212  and  _213
REMARK   87  A    between atoms: _215  and  _217
REMARK   88  A    between atoms: _217  and  _218
REMARK   89  A    between atoms: _217  and  _220
REMARK   90  A    between atoms: _220  and  _221
REMARK   91  A    between atoms: _221  and  _222
REMARK   92  A    between atoms: _224  and  _226
REMARK   93  A    between atoms: _226  and  _227
REMARK   94  A    between atoms: _226  and  _229
REMARK   95  A    between atoms: _229  and  _230
REMARK   96  A    between atoms: _230  and  _231
REMARK   97  A    between atoms: _231  and  _232
REMARK   98  A    between atoms: _232  and  _233
REMARK   99  A    between atoms: _237  and  _239
REMARK  100  A    between atoms: _239  and  _240
REMARK  101  A    between atoms: _239  and  _242
REMARK  102  A    between atoms: _242  and  _243
REMARK  103  A    between atoms: _248  and  _250
REMARK  104  A    between atoms: _250  and  _251
REMARK  105  A    between atoms: _253  and  _255
REMARK  106  A    between atoms: _255  and  _256
REMARK  107  A    between atoms: _255  and  _258
REMARK  108  A    between atoms: _258  and  _259
REMARK  109  A    between atoms: _262  and  _264
REMARK  110  A    between atoms: _264  and  _265
REMARK  111  A    between atoms: _264  and  _267
REMARK  112  A    between atoms: _267  and  _268
REMARK  113  A    between atoms: _271  and  _273
REMARK  114  A    between atoms: _273  and  _274
REMARK  115  A    between atoms: _273  and  _276
REMARK  116  A    between atoms: _276  and  _277
REMARK  117  A    between atoms: _277  and  _278
REMARK  118  A    between atoms: _278  and  _279
REMARK  119  A    between atoms: _288  and  _290
REMARK  120  A    between atoms: _290  and  _291
REMARK  121  A    between atoms: _290  and  _293
REMARK  122  A    between atoms: _293  and  _294
REMARK  123  A    between atoms: _299  and  _301
REMARK  124  A    between atoms: _301  and  _302
REMARK  125  A    between atoms: _301  and  _304
REMARK  126  A    between atoms: _304  and  _305
REMARK  127  A    between atoms: _311  and  _313
REMARK  128  A    between atoms: _313  and  _314
REMARK  129  A    between atoms: _313  and  _316
REMARK  130  A    between atoms: _316  and  _317
REMARK  131  A    between atoms: _322  and  _324
REMARK  132  A    between atoms: _324  and  _325
REMARK  133  A    between atoms: _324  and  _327
REMARK  134  A    between atoms: _327  and  _328
REMARK  135  A    between atoms: _331  and  _333
REMARK  136  A    between atoms: _333  and  _334
REMARK  137  A    between atoms: _337  and  _339
REMARK  138  A    between atoms: _339  and  _340
REMARK  139  A    between atoms: _343  and  _345
REMARK  140  A    between atoms: _345  and  _346
REMARK  141  A    between atoms: _345  and  _348
REMARK  142  A    between atoms: _348  and  _349
REMARK  143  A    between atoms: _349  and  _350
REMARK  144  A    between atoms: _350  and  _351
REMARK  145  A    between atoms: _360  and  _362
REMARK  146  A    between atoms: _362  and  _363
REMARK  147  A    between atoms: _362  and  _365
REMARK  148  A    between atoms: _365  and  _366
REMARK  149  A    between atoms: _371  and  _373
REMARK  150  A    between atoms: _373  and  _374
REMARK  151  A    between atoms: _373  and  _376
REMARK  152  A    between atoms: _378  and  _380
REMARK  153  A    between atoms: _380  and  _381
REMARK  154  A    between atoms: _380  and  _383
REMARK  155  A    between atoms: _383  and  _384
REMARK  156  A    between atoms: _384  and  _385
REMARK  157  A    between atoms: _387  and  _389
REMARK  158  A    between atoms: _389  and  _390
REMARK  159  A    between atoms: _389  and  _392
REMARK  160  A    between atoms: _392  and  _393
REMARK  161  A    between atoms: _396  and  _398
REMARK  162  A    between atoms: _398  and  _399
REMARK  163  A    between atoms: _398  and  _401
REMARK  164  A    between atoms: _401  and  _402
REMARK  165  A    between atoms: _405  and  _407
REMARK  166  A    between atoms: _407  and  _408
REMARK  167  A    between atoms: _407  and  _410
REMARK  168  A    between atoms: _410  and  _411
REMARK  169  A    between atoms: _411  and  _412
REMARK  170  A    between atoms: _412  and  _413
REMARK  171  A    between atoms: _413  and  _414
REMARK  172  A    between atoms: _418  and  _420
REMARK  173  A    between atoms: _420  and  _421
REMARK  174  A    between atoms: _420  and  _423
REMARK  175  A    between atoms: _426  and  _428
REMARK  176  A    between atoms: _428  and  _429
REMARK  177  A    between atoms: _432  and  _434
REMARK  178  A    between atoms: _434  and  _435
REMARK  179  A    between atoms: _434  and  _437
REMARK  180  A    between atoms: _437  and  _438
REMARK  181  A    between atoms: _441  and  _443
REMARK  182  A    between atoms: _443  and  _444
REMARK  183  A    between atoms: _443  and  _446
REMARK  184  A    between atoms: _446  and  _447
REMARK  185  A    between atoms: _453  and  _455
REMARK  186  A    between atoms: _455  and  _456
REMARK  187  A    between atoms: _455  and  _458
REMARK  188  A    between atoms: _458  and  _459
REMARK  189  A    between atoms: _462  and  _464
REMARK  190  A    between atoms: _464  and  _465
REMARK  191  A    between atoms: _468  and  _470
REMARK  192  A    between atoms: _470  and  _471
REMARK  193  A    between atoms: _470  and  _473
REMARK  194  A    between atoms: _473  and  _474
REMARK  195  A    between atoms: _474  and  _475
REMARK  196  A    between atoms: _475  and  _476
REMARK  197  A    between atoms: _485  and  _487
REMARK  198  A    between atoms: _487  and  _488
REMARK  199  A    between atoms: _487  and  _490
REMARK  200  A    between atoms: _490  and  _491
REMARK  201  A    between atoms: _494  and  _496
REMARK  202  A    between atoms: _496  and  _497
REMARK  203  A    between atoms: _496  and  _499
REMARK  204  A    between atoms: _499  and  _500
REMARK  205  A    between atoms: _500  and  _501
REMARK  206  A    between atoms: _503  and  _505
REMARK  207  A    between atoms: _505  and  _506
REMARK  208  A    between atoms: _505  and  _508
REMARK  209  A    between atoms: _508  and  _509
REMARK  210  A    between atoms: _514  and  _515
REMARK  211  A    between atoms: _517  and  _519
REMARK  212  A    between atoms: _519  and  _520
REMARK  213  A    between atoms: _519  and  _522
REMARK  214  A    between atoms: _522  and  _523
REMARK  215  A    between atoms: _526  and  _528
REMARK  216  A    between atoms: _528  and  _529
REMARK  217  A    between atoms: _528  and  _531
REMARK  218  A    between atoms: _531  and  _532
REMARK  219  A    between atoms: _537  and  _538
REMARK                            x       y       z     vdW  Elec       q    Type
REMARK                         _______ _______ _______ _____ _____    ______ ____
ROOT
ATOM      1  O   HOH     1      25.946  83.805  15.072  0.00  0.00    +0.000 OA
ENDROOT
TORSDOF 0
REMARK  Name = ../refined-set-2016/3zcl/3zcl_pocket.pdb
REMARK  219 active torsions:
REMARK  status: ('A' for Active; 'I' for Inactive)
REMARK    1  A    between atoms: _1  and  _3
REMARK    2  A    between atoms: _3  and  _4
REMARK    3  A    between atoms: _3  and  _6
REMARK    4  A    between atoms: _9  and  _11
REMARK    5  A    between atoms: _11  and  _12
REMARK    6  A    between atoms: _11  and  _14
REMARK    7  A    between atoms: _14  and  _15
REMARK    8  A    between atoms: _18  and  _20
REMARK    9  A    between atoms: _20  and  _21
REMARK   10  A    between atoms: _23  and  _25
REMARK   11  A    between atoms: _25  and  _26
REMARK   12  A    between atoms: _25  and  _28
REMARK   13  A    between atoms: _28  and  _29
REMARK   14  A    between atoms: _29  and  _30
REMARK   15  A    between atoms: _30  and  _31
REMARK   16  A    between atoms: _40  and  _42
REMARK   17  A    between atoms: _42  and  _43
REMARK   18  A    between atoms: _45  and  _47
REMARK   19  A    between atoms: _47  and  _48
REMARK   20  A    between atoms: _47  and  _50
REMARK   21  A    between atoms: _52  and  _54
REMARK   22  A    between atoms: _54  and  _55
REMARK   23  A    between atoms: _54  and  _57
REMARK   24  A    between atoms: _60  and  _62
REMARK   25  A    between atoms: _62  and  _63
REMARK   26  A    between atoms: _62  and  _65
REMARK   27  A    between atoms: _65  and  _66
REMARK   28  A    between atoms: _71  and  _72
REMARK   29  A    between atoms: _74  and  _76
REMARK   30  A    between atoms: _76  and  _77
REMARK   31  A    between atoms: _76  and  _79
REMARK   32  A    between atoms: _79  and  _80
REMARK   33  A    between atoms: _85  and  _87
REMARK   34  A    between atoms: _87  and  _88
REMARK   35  A    between atoms: _90  and  _92
REMARK   36  A    between atoms: _92  and  _93
REMARK   37  A    between atoms: _92  and  _95
REMARK   38  A    between atoms: _95  and  _96
REMARK   39  A    between atoms: _101  and  _103
REMARK   40  A    between atoms: _103  and  _104
REMARK   41  A    between atoms: _103  and  _106
REMARK   42  A    between atoms: _108  and  _110
REMARK   43  A    between atoms: _110  and  _111
REMARK   44  A    between atoms: _114  and  _116
REMARK   45  A    between atoms: _116  and  _117
REMARK   46  A    between atoms: _116  and  _119
REMARK   47  A    between atoms: _122  and  _124
REMARK   48  A    between atoms: _124  and  _125
REMARK   49  A    between atoms: _124  and  _127
REMARK   50  A    between atoms: _127  and  _128
REMARK   51  A    between atoms: _128  and  _129
REMARK   52  A    between atoms: _129  and  _130
REMARK   53  A    between atoms: _130  and  _131
REMARK   54  A    between atoms: _135  and  _137
REMARK   55  A    between atoms: _137  and  _138
REMARK   56  A    between atoms: _137  and  _140
REMARK   57  A    between atoms: _140  and  _141
REMARK   58  A    between atoms: _143  and  _145
REMARK   59  A    between atoms: _145  and  _146
REMARK   60  A    between atoms: _145  and  _148
REMARK   61  A    between atoms: _148  and  _149
REMARK   62  A    between atoms: _149  and  _150
REMARK   63  A    between atoms: _152  and  _154
REMARK   64  A    between atoms: _154  and  _155
REMARK   65  A    between atoms: _154  and  _157
REMARK   66  A    between atoms: _157  and  _158
REMARK   67  A    between atoms: _161  and  _163
REMARK   68  A    between atoms: _163  and  _164
REMARK   69  A    between atoms: _163  and  _166
REMARK   70  A    between atoms: _166  and  _167
REMARK   71  A    between atoms: _169  and  _171
REMARK   72  A    between atoms: _171  and  _172
REMARK   73  A    between atoms: _171  and  _174
REMARK   74  A    between atoms: _177  and  _179
REMARK   75  A    between atoms: _179  and  _180
REMARK   76  A    between atoms: _179  and  _182
REMARK   77  A    between atoms: _185  and  _187
REMARK   78  A    between atoms: _187  and  _188
REMARK   79  A    between atoms: _187  and  _190
REMARK   80  A    between atoms: _190  and  _191
REMARK   81  A    between atoms: _195  and  _196
REMARK   82  A    between atoms: _201  and  _203
REMARK   83  A    between atoms: _203  and  _204
REMARK   84  A    between atoms: _203  and  _206
REMARK   85  A    between atoms: _206  and  _207
REMARK   86  A    between atoms: _212  and  _213
REMARK   87  A    between atoms: _215  and  _217
REMARK   88  A    between atoms: _217  and  _218
REMARK   89  A    between atoms: _217  and  _220
REMARK   90  A    between atoms: _220  and  _221
REMARK   91  A    between atoms: _221  and  _222
REMARK   92  A    between atoms: _224  and  _226
REMARK   93  A    between atoms: _226  and  _227
REMARK   94  A    between atoms: _226  and  _229
REMARK   95  A    between atoms: _229  and  _230
REMARK   96  A    between atoms: _230  and  _231
REMARK   97  A    between atoms: _231  and  _232
REMARK   98  A    between atoms: _232  and  _233
REMARK   99  A    between atoms: _237  and  _239
REMARK  100  A    between atoms: _239  and  _240
REMARK  101  A    between atoms: _239  and  _242
REMARK  102  A    between atoms: _242  and  _243
REMARK  103  A    between atoms: _248  and  _250
REMARK  104  A    between atoms: _250  and  _251
REMARK  105  A    between atoms: _253  and  _255
REMARK  106  A    between atoms: _255  and  _256
REMARK  107  A    between atoms: _255  and  _258
REMARK  108  A    between atoms: _258  and  _259
REMARK  109  A    between atoms: _262  and  _264
REMARK  110  A    between atoms: _264  and  _265
REMARK  111  A    between atoms: _264  and  _267
REMARK  112  A    between atoms: _267  and  _268
REMARK  113  A    between atoms: _271  and  _273
REMARK  114  A    between atoms: _273  and  _274
REMARK  115  A    between atoms: _273  and  _276
REMARK  116  A    between atoms: _276  and  _277
REMARK  117  A    between atoms: _277  and  _278
REMARK  118  A    between atoms: _278  and  _279
REMARK  119  A    between atoms: _288  and  _290
REMARK  120  A    between atoms: _290  and  _291
REMARK  121  A    between atoms: _290  and  _293
REMARK  122  A    between atoms: _293  and  _294
REMARK  123  A    between atoms: _299  and  _301
REMARK  124  A    between atoms: _301  and  _302
REMARK  125  A    between atoms: _301  and  _304
REMARK  126  A    between atoms: _304  and  _305
REMARK  127  A    between atoms: _311  and  _313
REMARK  128  A    between atoms: _313  and  _314
REMARK  129  A    between atoms: _313  and  _316
REMARK  130  A    between atoms: _316  and  _317
REMARK  131  A    between atoms: _322  and  _324
REMARK  132  A    between atoms: _324  and  _325
REMARK  133  A    between atoms: _324  and  _327
REMARK  134  A    between atoms: _327  and  _328
REMARK  135  A    between atoms: _331  and  _333
REMARK  136  A    between atoms: _333  and  _334
REMARK  137  A    between atoms: _337  and  _339
REMARK  138  A    between atoms: _339  and  _340
REMARK  139  A    between atoms: _343  and  _345
REMARK  140  A    between atoms: _345  and  _346
REMARK  141  A    between atoms: _345  and  _348
REMARK  142  A    between atoms: _348  and  _349
REMARK  143  A    between atoms: _349  and  _350
REMARK  144  A    between atoms: _350  and  _351
REMARK  145  A    between atoms: _360  and  _362
REMARK  146  A    between atoms: _362  and  _363
REMARK  147  A    between atoms: _362  and  _365
REMARK  148  A    between atoms: _365  and  _366
REMARK  149  A    between atoms: _371  and  _373
REMARK  150  A    between atoms: _373  and  _374
REMARK  151  A    between atoms: _373  and  _376
REMARK  152  A    between atoms: _378  and  _380
REMARK  153  A    between atoms: _380  and  _381
REMARK  154  A    between atoms: _380  and  _383
REMARK  155  A    between atoms: _383  and  _384
REMARK  156  A    between atoms: _384  and  _385
REMARK  157  A    between atoms: _387  and  _389
REMARK  158  A    between atoms: _389  and  _390
REMARK  159  A    between atoms: _389  and  _392
REMARK  160  A    between atoms: _392  and  _393
REMARK  161  A    between atoms: _396  and  _398
REMARK  162  A    between atoms: _398  and  _399
REMARK  163  A    between atoms: _398  and  _401
REMARK  164  A    between atoms: _401  and  _402
REMARK  165  A    between atoms: _405  and  _407
REMARK  166  A    between atoms: _407  and  _408
REMARK  167  A    between atoms: _407  and  _410
REMARK  168  A    between atoms: _410  and  _411
REMARK  169  A    between atoms: _411  and  _412
REMARK  170  A    between atoms: _412  and  _413
REMARK  171  A    between atoms: _413  and  _414
REMARK  172  A    between atoms: _418  and  _420
REMARK  173  A    between atoms: _420  and  _421
REMARK  174  A    between atoms: _420  and  _423
REMARK  175  A    between atoms: _426  and  _428
REMARK  176  A    between atoms: _428  and  _429
REMARK  177  A    between atoms: _432  and  _434
REMARK  178  A    between atoms: _434  and  _435
REMARK  179  A    between atoms: _434  and  _437
REMARK  180  A    between atoms: _437  and  _438
REMARK  181  A    between atoms: _441  and  _443
REMARK  182  A    between atoms: _443  and  _444
REMARK  183  A    between atoms: _443  and  _446
REMARK  184  A    between atoms: _446  and  _447
REMARK  185  A    between atoms: _453  and  _455
REMARK  186  A    between atoms: _455  and  _456
REMARK  187  A    between atoms: _455  and  _458
REMARK  188  A    between atoms: _458  and  _459
REMARK  189  A    between atoms: _462  and  _464
REMARK  190  A    between atoms: _464  and  _465
REMARK  191  A    between atoms: _468  and  _470
REMARK  192  A    between atoms: _470  and  _471
REMARK  193  A    between atoms: _470  and  _473
REMARK  194  A    between atoms: _473  and  _474
REMARK  195  A    between atoms: _474  and  _475
REMARK  196  A    between atoms: _475  and  _476
REMARK  197  A    between atoms: _485  and  _487
REMARK  198  A    between atoms: _487  and  _488
REMARK  199  A    between atoms: _487  and  _490
REMARK  200  A    between atoms: _490  and  _491
REMARK  201  A    between atoms: _494  and  _496
REMARK  202  A    between atoms: _496  and  _497
REMARK  203  A    between atoms: _496  and  _499
REMARK  204  A    between atoms: _499  and  _500
REMARK  205  A    between atoms: _500  and  _501
REMARK  206  A    between atoms: _503  and  _505
REMARK  207  A    between atoms: _505  and  _506
REMARK  208  A    between atoms: _505  and  _508
REMARK  209  A    between atoms: _508  and  _509
REMARK  210  A    between atoms: _514  and  _515
REMARK  211  A    between atoms: _517  and  _519
REMARK  212  A    between atoms: _519  and  _520
REMARK  213  A    between atoms: _519  and  _522
REMARK  214  A    between atoms: _522  and  _523
REMARK  215  A    between atoms: _526  and  _528
REMARK  216  A    between atoms: _528  and  _529
REMARK  217  A    between atoms: _528  and  _531
REMARK  218  A    between atoms: _531  and  _532
REMARK  219  A    between atoms: _537  and  _538
REMARK                            x       y       z     vdW  Elec       q    Type
REMARK                         _______ _______ _______ _____ _____    ______ ____
ROOT
ATOM      1  O   HOH     1      30.199  86.660  10.760  0.00  0.00    +0.000 OA
ENDROOT
TORSDOF 0
REMARK  Name = ../refined-set-2016/3zcl/3zcl_pocket.pdb
REMARK  219 active torsions:
REMARK  status: ('A' for Active; 'I' for Inactive)
REMARK    1  A    between atoms: _1  and  _3
REMARK    2  A    between atoms: _3  and  _4
REMARK    3  A    between atoms: _3  and  _6
REMARK    4  A    between atoms: _9  and  _11
REMARK    5  A    between atoms: _11  and  _12
REMARK    6  A    between atoms: _11  and  _14
REMARK    7  A    between atoms: _14  and  _15
REMARK    8  A    between atoms: _18  and  _20
REMARK    9  A    between atoms: _20  and  _21
REMARK   10  A    between atoms: _23  and  _25
REMARK   11  A    between atoms: _25  and  _26
REMARK   12  A    between atoms: _25  and  _28
REMARK   13  A    between atoms: _28  and  _29
REMARK   14  A    between atoms: _29  and  _30
REMARK   15  A    between atoms: _30  and  _31
REMARK   16  A    between atoms: _40  and  _42
REMARK   17  A    between atoms: _42  and  _43
REMARK   18  A    between atoms: _45  and  _47
REMARK   19  A    between atoms: _47  and  _48
REMARK   20  A    between atoms: _47  and  _50
REMARK   21  A    between atoms: _52  and  _54
REMARK   22  A    between atoms: _54  and  _55
REMARK   23  A    between atoms: _54  and  _57
REMARK   24  A    between atoms: _60  and  _62
REMARK   25  A    between atoms: _62  and  _63
REMARK   26  A    between atoms: _62  and  _65
REMARK   27  A    between atoms: _65  and  _66
REMARK   28  A    between atoms: _71  and  _72
REMARK   29  A    between atoms: _74  and  _76
REMARK   30  A    between atoms: _76  and  _77
REMARK   31  A    between atoms: _76  and  _79
REMARK   32  A    between atoms: _79  and  _80
REMARK   33  A    between atoms: _85  and  _87
REMARK   34  A    between atoms: _87  and  _88
REMARK   35  A    between atoms: _90  and  _92
REMARK   36  A    between atoms: _92  and  _93
REMARK   37  A    between atoms: _92  and  _95
REMARK   38  A    between atoms: _95  and  _96
REMARK   39  A    between atoms: _101  and  _103
REMARK   40  A    between atoms: _103  and  _104
REMARK   41  A    between atoms: _103  and  _106
REMARK   42  A    between atoms: _108  and  _110
REMARK   43  A    between atoms: _110  and  _111
REMARK   44  A    between atoms: _114  and  _116
REMARK   45  A    between atoms: _116  and  _117
REMARK   46  A    between atoms: _116  and  _119
REMARK   47  A    between atoms: _122  and  _124
REMARK   48  A    between atoms: _124  and  _125
REMARK   49  A    between atoms: _124  and  _127
REMARK   50  A    between atoms: _127  and  _128
REMARK   51  A    between atoms: _128  and  _129
REMARK   52  A    between atoms: _129  and  _130
REMARK   53  A    between atoms: _130  and  _131
REMARK   54  A    between atoms: _135  and  _137
REMARK   55  A    between atoms: _137  and  _138
REMARK   56  A    between atoms: _137  and  _140
REMARK   57  A    between atoms: _140  and  _141
REMARK   58  A    between atoms: _143  and  _145
REMARK   59  A    between atoms: _145  and  _146
REMARK   60  A    between atoms: _145  and  _148
REMARK   61  A    between atoms: _148  and  _149
REMARK   62  A    between atoms: _149  and  _150
REMARK   63  A    between atoms: _152  and  _154
REMARK   64  A    between atoms: _154  and  _155
REMARK   65  A    between atoms: _154  and  _157
REMARK   66  A    between atoms: _157  and  _158
REMARK   67  A    between atoms: _161  and  _163
REMARK   68  A    between atoms: _163  and  _164
REMARK   69  A    between atoms: _163  and  _166
REMARK   70  A    between atoms: _166  and  _167
REMARK   71  A    between atoms: _169  and  _171
REMARK   72  A    between atoms: _171  and  _172
REMARK   73  A    between atoms: _171  and  _174
REMARK   74  A    between atoms: _177  and  _179
REMARK   75  A    between atoms: _179  and  _180
REMARK   76  A    between atoms: _179  and  _182
REMARK   77  A    between atoms: _185  and  _187
REMARK   78  A    between atoms: _187  and  _188
REMARK   79  A    between atoms: _187  and  _190
REMARK   80  A    between atoms: _190  and  _191
REMARK   81  A    between atoms: _195  and  _196
REMARK   82  A    between atoms: _201  and  _203
REMARK   83  A    between atoms: _203  and  _204
REMARK   84  A    between atoms: _203  and  _206
REMARK   85  A    between atoms: _206  and  _207
REMARK   86  A    between atoms: _212  and  _213
REMARK   87  A    between atoms: _215  and  _217
REMARK   88  A    between atoms: _217  and  _218
REMARK   89  A    between atoms: _217  and  _220
REMARK   90  A    between atoms: _220  and  _221
REMARK   91  A    between atoms: _221  and  _222
REMARK   92  A    between atoms: _224  and  _226
REMARK   93  A    between atoms: _226  and  _227
REMARK   94  A    between atoms: _226  and  _229
REMARK   95  A    between atoms: _229  and  _230
REMARK   96  A    between atoms: _230  and  _231
REMARK   97  A    between atoms: _231  and  _232
REMARK   98  A    between atoms: _232  and  _233
REMARK   99  A    between atoms: _237  and  _239
REMARK  100  A    between atoms: _239  and  _240
REMARK  101  A    between atoms: _239  and  _242
REMARK  102  A    between atoms: _242  and  _243
REMARK  103  A    between atoms: _248  and  _250
REMARK  104  A    between atoms: _250  and  _251
REMARK  105  A    between atoms: _253  and  _255
REMARK  106  A    between atoms: _255  and  _256
REMARK  107  A    between atoms: _255  and  _258
REMARK  108  A    between atoms: _258  and  _259
REMARK  109  A    between atoms: _262  and  _264
REMARK  110  A    between atoms: _264  and  _265
REMARK  111  A    between atoms: _264  and  _267
REMARK  112  A    between atoms: _267  and  _268
REMARK  113  A    between atoms: _271  and  _273
REMARK  114  A    between atoms: _273  and  _274
REMARK  115  A    between atoms: _273  and  _276
REMARK  116  A    between atoms: _276  and  _277
REMARK  117  A    between atoms: _277  and  _278
REMARK  118  A    between atoms: _278  and  _279
REMARK  119  A    between atoms: _288  and  _290
REMARK  120  A    between atoms: _290  and  _291
REMARK  121  A    between atoms: _290  and  _293
REMARK  122  A    between atoms: _293  and  _294
REMARK  123  A    between atoms: _299  and  _301
REMARK  124  A    between atoms: _301  and  _302
REMARK  125  A    between atoms: _301  and  _304
REMARK  126  A    between atoms: _304  and  _305
REMARK  127  A    between atoms: _311  and  _313
REMARK  128  A    between atoms: _313  and  _314
REMARK  129  A    between atoms: _313  and  _316
REMARK  130  A    between atoms: _316  and  _317
REMARK  131  A    between atoms: _322  and  _324
REMARK  132  A    between atoms: _324  and  _325
REMARK  133  A    between atoms: _324  and  _327
REMARK  134  A    between atoms: _327  and  _328
REMARK  135  A    between atoms: _331  and  _333
REMARK  136  A    between atoms: _333  and  _334
REMARK  137  A    between atoms: _337  and  _339
REMARK  138  A    between atoms: _339  and  _340
REMARK  139  A    between atoms: _343  and  _345
REMARK  140  A    between atoms: _345  and  _346
REMARK  141  A    between atoms: _345  and  _348
REMARK  142  A    between atoms: _348  and  _349
REMARK  143  A    between atoms: _349  and  _350
REMARK  144  A    between atoms: _350  and  _351
REMARK  145  A    between atoms: _360  and  _362
REMARK  146  A    between atoms: _362  and  _363
REMARK  147  A    between atoms: _362  and  _365
REMARK  148  A    between atoms: _365  and  _366
REMARK  149  A    between atoms: _371  and  _373
REMARK  150  A    between atoms: _373  and  _374
REMARK  151  A    between atoms: _373  and  _376
REMARK  152  A    between atoms: _378  and  _380
REMARK  153  A    between atoms: _380  and  _381
REMARK  154  A    between atoms: _380  and  _383
REMARK  155  A    between atoms: _383  and  _384
REMARK  156  A    between atoms: _384  and  _385
REMARK  157  A    between atoms: _387  and  _389
REMARK  158  A    between atoms: _389  and  _390
REMARK  159  A    between atoms: _389  and  _392
REMARK  160  A    between atoms: _392  and  _393
REMARK  161  A    between atoms: _396  and  _398
REMARK  162  A    between atoms: _398  and  _399
REMARK  163  A    between atoms: _398  and  _401
REMARK  164  A    between atoms: _401  and  _402
REMARK  165  A    between atoms: _405  and  _407
REMARK  166  A    between atoms: _407  and  _408
REMARK  167  A    between atoms: _407  and  _410
REMARK  168  A    between atoms: _410  and  _411
REMARK  169  A    between atoms: _411  and  _412
REMARK  170  A    between atoms: _412  and  _413
REMARK  171  A    between atoms: _413  and  _414
REMARK  172  A    between atoms: _418  and  _420
REMARK  173  A    between atoms: _420  and  _421
REMARK  174  A    between atoms: _420  and  _423
REMARK  175  A    between atoms: _426  and  _428
REMARK  176  A    between atoms: _428  and  _429
REMARK  177  A    between atoms: _432  and  _434
REMARK  178  A    between atoms: _434  and  _435
REMARK  179  A    between atoms: _434  and  _437
REMARK  180  A    between atoms: _437  and  _438
REMARK  181  A    between atoms: _441  and  _443
REMARK  182  A    between atoms: _443  and  _444
REMARK  183  A    between atoms: _443  and  _446
REMARK  184  A    between atoms: _446  and  _447
REMARK  185  A    between atoms: _453  and  _455
REMARK  186  A    between atoms: _455  and  _456
REMARK  187  A    between atoms: _455  and  _458
REMARK  188  A    between atoms: _458  and  _459
REMARK  189  A    between atoms: _462  and  _464
REMARK  190  A    between atoms: _464  and  _465
REMARK  191  A    between atoms: _468  and  _470
REMARK  192  A    between atoms: _470  and  _471
REMARK  193  A    between atoms: _470  and  _473
REMARK  194  A    between atoms: _473  and  _474
REMARK  195  A    between atoms: _474  and  _475
REMARK  196  A    between atoms: _475  and  _476
REMARK  197  A    between atoms: _485  and  _487
REMARK  198  A    between atoms: _487  and  _488
REMARK  199  A    between atoms: _487  and  _490
REMARK  200  A    between atoms: _490  and  _491
REMARK  201  A    between atoms: _494  and  _496
REMARK  202  A    between atoms: _496  and  _497
REMARK  203  A    between atoms: _496  and  _499
REMARK  204  A    between atoms: _499  and  _500
REMARK  205  A    between atoms: _500  and  _501
REMARK  206  A    between atoms: _503  and  _505
REMARK  207  A    between atoms: _505  and  _506
REMARK  208  A    between atoms: _505  and  _508
REMARK  209  A    between atoms: _508  and  _509
REMARK  210  A    between atoms: _514  and  _515
REMARK  211  A    between atoms: _517  and  _519
REMARK  212  A    between atoms: _519  and  _520
REMARK  213  A    between atoms: _519  and  _522
REMARK  214  A    between atoms: _522  and  _523
REMARK  215  A    between atoms: _526  and  _528
REMARK  216  A    between atoms: _528  and  _529
REMARK  217  A    between atoms: _528  and  _531
REMARK  218  A    between atoms: _531  and  _532
REMARK  219  A    between atoms: _537  and  _538
REMARK                            x       y       z     vdW  Elec       q    Type
REMARK                         _______ _______ _______ _____ _____    ______ ____
ROOT
ATOM      1  O   HOH     1      30.737  83.898   8.312  0.00  0.00    +0.000 OA
ENDROOT
TORSDOF 0
REMARK  Name = ../refined-set-2016/3zcl/3zcl_pocket.pdb
REMARK  219 active torsions:
REMARK  status: ('A' for Active; 'I' for Inactive)
REMARK    1  A    between atoms: _1  and  _3
REMARK    2  A    between atoms: _3  and  _4
REMARK    3  A    between atoms: _3  and  _6
REMARK    4  A    between atoms: _9  and  _11
REMARK    5  A    between atoms: _11  and  _12
REMARK    6  A    between atoms: _11  and  _14
REMARK    7  A    between atoms: _14  and  _15
REMARK    8  A    between atoms: _18  and  _20
REMARK    9  A    between atoms: _20  and  _21
REMARK   10  A    between atoms: _23  and  _25
REMARK   11  A    between atoms: _25  and  _26
REMARK   12  A    between atoms: _25  and  _28
REMARK   13  A    between atoms: _28  and  _29
REMARK   14  A    between atoms: _29  and  _30
REMARK   15  A    between atoms: _30  and  _31
REMARK   16  A    between atoms: _40  and  _42
REMARK   17  A    between atoms: _42  and  _43
REMARK   18  A    between atoms: _45  and  _47
REMARK   19  A    between atoms: _47  and  _48
REMARK   20  A    between atoms: _47  and  _50
REMARK   21  A    between atoms: _52  and  _54
REMARK   22  A    between atoms: _54  and  _55
REMARK   23  A    between atoms: _54  and  _57
REMARK   24  A    between atoms: _60  and  _62
REMARK   25  A    between atoms: _62  and  _63
REMARK   26  A    between atoms: _62  and  _65
REMARK   27  A    between atoms: _65  and  _66
REMARK   28  A    between atoms: _71  and  _72
REMARK   29  A    between atoms: _74  and  _76
REMARK   30  A    between atoms: _76  and  _77
REMARK   31  A    between atoms: _76  and  _79
REMARK   32  A    between atoms: _79  and  _80
REMARK   33  A    between atoms: _85  and  _87
REMARK   34  A    between atoms: _87  and  _88
REMARK   35  A    between atoms: _90  and  _92
REMARK   36  A    between atoms: _92  and  _93
REMARK   37  A    between atoms: _92  and  _95
REMARK   38  A    between atoms: _95  and  _96
REMARK   39  A    between atoms: _101  and  _103
REMARK   40  A    between atoms: _103  and  _104
REMARK   41  A    between atoms: _103  and  _106
REMARK   42  A    between atoms: _108  and  _110
REMARK   43  A    between atoms: _110  and  _111
REMARK   44  A    between atoms: _114  and  _116
REMARK   45  A    between atoms: _116  and  _117
REMARK   46  A    between atoms: _116  and  _119
REMARK   47  A    between atoms: _122  and  _124
REMARK   48  A    between atoms: _124  and  _125
REMARK   49  A    between atoms: _124  and  _127
REMARK   50  A    between atoms: _127  and  _128
REMARK   51  A    between atoms: _128  and  _129
REMARK   52  A    between atoms: _129  and  _130
REMARK   53  A    between atoms: _130  and  _131
REMARK   54  A    between atoms: _135  and  _137
REMARK   55  A    between atoms: _137  and  _138
REMARK   56  A    between atoms: _137  and  _140
REMARK   57  A    between atoms: _140  and  _141
REMARK   58  A    between atoms: _143  and  _145
REMARK   59  A    between atoms: _145  and  _146
REMARK   60  A    between atoms: _145  and  _148
REMARK   61  A    between atoms: _148  and  _149
REMARK   62  A    between atoms: _149  and  _150
REMARK   63  A    between atoms: _152  and  _154
REMARK   64  A    between atoms: _154  and  _155
REMARK   65  A    between atoms: _154  and  _157
REMARK   66  A    between atoms: _157  and  _158
REMARK   67  A    between atoms: _161  and  _163
REMARK   68  A    between atoms: _163  and  _164
REMARK   69  A    between atoms: _163  and  _166
REMARK   70  A    between atoms: _166  and  _167
REMARK   71  A    between atoms: _169  and  _171
REMARK   72  A    between atoms: _171  and  _172
REMARK   73  A    between atoms: _171  and  _174
REMARK   74  A    between atoms: _177  and  _179
REMARK   75  A    between atoms: _179  and  _180
REMARK   76  A    between atoms: _179  and  _182
REMARK   77  A    between atoms: _185  and  _187
REMARK   78  A    between atoms: _187  and  _188
REMARK   79  A    between atoms: _187  and  _190
REMARK   80  A    between atoms: _190  and  _191
REMARK   81  A    between atoms: _195  and  _196
REMARK   82  A    between atoms: _201  and  _203
REMARK   83  A    between atoms: _203  and  _204
REMARK   84  A    between atoms: _203  and  _206
REMARK   85  A    between atoms: _206  and  _207
REMARK   86  A    between atoms: _212  and  _213
REMARK   87  A    between atoms: _215  and  _217
REMARK   88  A    between atoms: _217  and  _218
REMARK   89  A    between atoms: _217  and  _220
REMARK   90  A    between atoms: _220  and  _221
REMARK   91  A    between atoms: _221  and  _222
REMARK   92  A    between atoms: _224  and  _226
REMARK   93  A    between atoms: _226  and  _227
REMARK   94  A    between atoms: _226  and  _229
REMARK   95  A    between atoms: _229  and  _230
REMARK   96  A    between atoms: _230  and  _231
REMARK   97  A    between atoms: _231  and  _232
REMARK   98  A    between atoms: _232  and  _233
REMARK   99  A    between atoms: _237  and  _239
REMARK  100  A    between atoms: _239  and  _240
REMARK  101  A    between atoms: _239  and  _242
REMARK  102  A    between atoms: _242  and  _243
REMARK  103  A    between atoms: _248  and  _250
REMARK  104  A    between atoms: _250  and  _251
REMARK  105  A    between atoms: _253  and  _255
REMARK  106  A    between atoms: _255  and  _256
REMARK  107  A    between atoms: _255  and  _258
REMARK  108  A    between atoms: _258  and  _259
REMARK  109  A    between atoms: _262  and  _264
REMARK  110  A    between atoms: _264  and  _265
REMARK  111  A    between atoms: _264  and  _267
REMARK  112  A    between atoms: _267  and  _268
REMARK  113  A    between atoms: _271  and  _273
REMARK  114  A    between atoms: _273  and  _274
REMARK  115  A    between atoms: _273  and  _276
REMARK  116  A    between atoms: _276  and  _277
REMARK  117  A    between atoms: _277  and  _278
REMARK  118  A    between atoms: _278  and  _279
REMARK  119  A    between atoms: _288  and  _290
REMARK  120  A    between atoms: _290  and  _291
REMARK  121  A    between atoms: _290  and  _293
REMARK  122  A    between atoms: _293  and  _294
REMARK  123  A    between atoms: _299  and  _301
REMARK  124  A    between atoms: _301  and  _302
REMARK  125  A    between atoms: _301  and  _304
REMARK  126  A    between atoms: _304  and  _305
REMARK  127  A    between atoms: _311  and  _313
REMARK  128  A    between atoms: _313  and  _314
REMARK  129  A    between atoms: _313  and  _316
REMARK  130  A    between atoms: _316  and  _317
REMARK  131  A    between atoms: _322  and  _324
REMARK  132  A    between atoms: _324  and  _325
REMARK  133  A    between atoms: _324  and  _327
REMARK  134  A    between atoms: _327  and  _328
REMARK  135  A    between atoms: _331  and  _333
REMARK  136  A    between atoms: _333  and  _334
REMARK  137  A    between atoms: _337  and  _339
REMARK  138  A    between atoms: _339  and  _340
REMARK  139  A    between atoms: _343  and  _345
REMARK  140  A    between atoms: _345  and  _346
REMARK  141  A    between atoms: _345  and  _348
REMARK  142  A    between atoms: _348  and  _349
REMARK  143  A    between atoms: _349  and  _350
REMARK  144  A    between atoms: _350  and  _351
REMARK  145  A    between atoms: _360  and  _362
REMARK  146  A    between atoms: _362  and  _363
REMARK  147  A    between atoms: _362  and  _365
REMARK  148  A    between atoms: _365  and  _366
REMARK  149  A    between atoms: _371  and  _373
REMARK  150  A    between atoms: _373  and  _374
REMARK  151  A    between atoms: _373  and  _376
REMARK  152  A    between atoms: _378  and  _380
REMARK  153  A    between atoms: _380  and  _381
REMARK  154  A    between atoms: _380  and  _383
REMARK  155  A    between atoms: _383  and  _384
REMARK  156  A    between atoms: _384  and  _385
REMARK  157  A    between atoms: _387  and  _389
REMARK  158  A    between atoms: _389  and  _390
REMARK  159  A    between atoms: _389  and  _392
REMARK  160  A    between atoms: _392  and  _393
REMARK  161  A    between atoms: _396  and  _398
REMARK  162  A    between atoms: _398  and  _399
REMARK  163  A    between atoms: _398  and  _401
REMARK  164  A    between atoms: _401  and  _402
REMARK  165  A    between atoms: _405  and  _407
REMARK  166  A    between atoms: _407  and  _408
REMARK  167  A    between atoms: _407  and  _410
REMARK  168  A    between atoms: _410  and  _411
REMARK  169  A    between atoms: _411  and  _412
REMARK  170  A    between atoms: _412  and  _413
REMARK  171  A    between atoms: _413  and  _414
REMARK  172  A    between atoms: _418  and  _420
REMARK  173  A    between atoms: _420  and  _421
REMARK  174  A    between atoms: _420  and  _423
REMARK  175  A    between atoms: _426  and  _428
REMARK  176  A    between atoms: _428  and  _429
REMARK  177  A    between atoms: _432  and  _434
REMARK  178  A    between atoms: _434  and  _435
REMARK  179  A    between atoms: _434  and  _437
REMARK  180  A    between atoms: _437  and  _438
REMARK  181  A    between atoms: _441  and  _443
REMARK  182  A    between atoms: _443  and  _444
REMARK  183  A    between atoms: _443  and  _446
REMARK  184  A    between atoms: _446  and  _447
REMARK  185  A    between atoms: _453  and  _455
REMARK  186  A    between atoms: _455  and  _456
REMARK  187  A    between atoms: _455  and  _458
REMARK  188  A    between atoms: _458  and  _459
REMARK  189  A    between atoms: _462  and  _464
REMARK  190  A    between atoms: _464  and  _465
REMARK  191  A    between atoms: _468  and  _470
REMARK  192  A    between atoms: _470  and  _471
REMARK  193  A    between atoms: _470  and  _473
REMARK  194  A    between atoms: _473  and  _474
REMARK  195  A    between atoms: _474  and  _475
REMARK  196  A    between atoms: _475  and  _476
REMARK  197  A    between atoms: _485  and  _487
REMARK  198  A    between atoms: _487  and  _488
REMARK  199  A    between atoms: _487  and  _490
REMARK  200  A    between atoms: _490  and  _491
REMARK  201  A    between atoms: _494  and  _496
REMARK  202  A    between atoms: _496  and  _497
REMARK  203  A    between atoms: _496  and  _499
REMARK  204  A    between atoms: _499  and  _500
REMARK  205  A    between atoms: _500  and  _501
REMARK  206  A    between atoms: _503  and  _505
REMARK  207  A    between atoms: _505  and  _506
REMARK  208  A    between atoms: _505  and  _508
REMARK  209  A    between atoms: _508  and  _509
REMARK  210  A    between atoms: _514  and  _515
REMARK  211  A    between atoms: _517  and  _519
REMARK  212  A    between atoms: _519  and  _520
REMARK  213  A    between atoms: _519  and  _522
REMARK  214  A    between atoms: _522  and  _523
REMARK  215  A    between atoms: _526  and  _528
REMARK  216  A    between atoms: _528  and  _529
REMARK  217  A    between atoms: _528  and  _531
REMARK  218  A    between atoms: _531  and  _532
REMARK  219  A    between atoms: _537  and  _538
REMARK                            x       y       z     vdW  Elec       q    Type
REMARK                         _______ _______ _______ _____ _____    ______ ____
ROOT
ATOM      1  O   HOH     1      26.119  83.729   1.669  0.00  0.00    +0.000 OA
ENDROOT
TORSDOF 0
REMARK  Name = ../refined-set-2016/3zcl/3zcl_pocket.pdb
REMARK  219 active torsions:
REMARK  status: ('A' for Active; 'I' for Inactive)
REMARK    1  A    between atoms: _1  and  _3
REMARK    2  A    between atoms: _3  and  _4
REMARK    3  A    between atoms: _3  and  _6
REMARK    4  A    between atoms: _9  and  _11
REMARK    5  A    between atoms: _11  and  _12
REMARK    6  A    between atoms: _11  and  _14
REMARK    7  A    between atoms: _14  and  _15
REMARK    8  A    between atoms: _18  and  _20
REMARK    9  A    between atoms: _20  and  _21
REMARK   10  A    between atoms: _23  and  _25
REMARK   11  A    between atoms: _25  and  _26
REMARK   12  A    between atoms: _25  and  _28
REMARK   13  A    between atoms: _28  and  _29
REMARK   14  A    between atoms: _29  and  _30
REMARK   15  A    between atoms: _30  and  _31
REMARK   16  A    between atoms: _40  and  _42
REMARK   17  A    between atoms: _42  and  _43
REMARK   18  A    between atoms: _45  and  _47
REMARK   19  A    between atoms: _47  and  _48
REMARK   20  A    between atoms: _47  and  _50
REMARK   21  A    between atoms: _52  and  _54
REMARK   22  A    between atoms: _54  and  _55
REMARK   23  A    between atoms: _54  and  _57
REMARK   24  A    between atoms: _60  and  _62
REMARK   25  A    between atoms: _62  and  _63
REMARK   26  A    between atoms: _62  and  _65
REMARK   27  A    between atoms: _65  and  _66
REMARK   28  A    between atoms: _71  and  _72
REMARK   29  A    between atoms: _74  and  _76
REMARK   30  A    between atoms: _76  and  _77
REMARK   31  A    between atoms: _76  and  _79
REMARK   32  A    between atoms: _79  and  _80
REMARK   33  A    between atoms: _85  and  _87
REMARK   34  A    between atoms: _87  and  _88
REMARK   35  A    between atoms: _90  and  _92
REMARK   36  A    between atoms: _92  and  _93
REMARK   37  A    between atoms: _92  and  _95
REMARK   38  A    between atoms: _95  and  _96
REMARK   39  A    between atoms: _101  and  _103
REMARK   40  A    between atoms: _103  and  _104
REMARK   41  A    between atoms: _103  and  _106
REMARK   42  A    between atoms: _108  and  _110
REMARK   43  A    between atoms: _110  and  _111
REMARK   44  A    between atoms: _114  and  _116
REMARK   45  A    between atoms: _116  and  _117
REMARK   46  A    between atoms: _116  and  _119
REMARK   47  A    between atoms: _122  and  _124
REMARK   48  A    between atoms: _124  and  _125
REMARK   49  A    between atoms: _124  and  _127
REMARK   50  A    between atoms: _127  and  _128
REMARK   51  A    between atoms: _128  and  _129
REMARK   52  A    between atoms: _129  and  _130
REMARK   53  A    between atoms: _130  and  _131
REMARK   54  A    between atoms: _135  and  _137
REMARK   55  A    between atoms: _137  and  _138
REMARK   56  A    between atoms: _137  and  _140
REMARK   57  A    between atoms: _140  and  _141
REMARK   58  A    between atoms: _143  and  _145
REMARK   59  A    between atoms: _145  and  _146
REMARK   60  A    between atoms: _145  and  _148
REMARK   61  A    between atoms: _148  and  _149
REMARK   62  A    between atoms: _149  and  _150
REMARK   63  A    between atoms: _152  and  _154
REMARK   64  A    between atoms: _154  and  _155
REMARK   65  A    between atoms: _154  and  _157
REMARK   66  A    between atoms: _157  and  _158
REMARK   67  A    between atoms: _161  and  _163
REMARK   68  A    between atoms: _163  and  _164
REMARK   69  A    between atoms: _163  and  _166
REMARK   70  A    between atoms: _166  and  _167
REMARK   71  A    between atoms: _169  and  _171
REMARK   72  A    between atoms: _171  and  _172
REMARK   73  A    between atoms: _171  and  _174
REMARK   74  A    between atoms: _177  and  _179
REMARK   75  A    between atoms: _179  and  _180
REMARK   76  A    between atoms: _179  and  _182
REMARK   77  A    between atoms: _185  and  _187
REMARK   78  A    between atoms: _187  and  _188
REMARK   79  A    between atoms: _187  and  _190
REMARK   80  A    between atoms: _190  and  _191
REMARK   81  A    between atoms: _195  and  _196
REMARK   82  A    between atoms: _201  and  _203
REMARK   83  A    between atoms: _203  and  _204
REMARK   84  A    between atoms: _203  and  _206
REMARK   85  A    between atoms: _206  and  _207
REMARK   86  A    between atoms: _212  and  _213
REMARK   87  A    between atoms: _215  and  _217
REMARK   88  A    between atoms: _217  and  _218
REMARK   89  A    between atoms: _217  and  _220
REMARK   90  A    between atoms: _220  and  _221
REMARK   91  A    between atoms: _221  and  _222
REMARK   92  A    between atoms: _224  and  _226
REMARK   93  A    between atoms: _226  and  _227
REMARK   94  A    between atoms: _226  and  _229
REMARK   95  A    between atoms: _229  and  _230
REMARK   96  A    between atoms: _230  and  _231
REMARK   97  A    between atoms: _231  and  _232
REMARK   98  A    between atoms: _232  and  _233
REMARK   99  A    between atoms: _237  and  _239
REMARK  100  A    between atoms: _239  and  _240
REMARK  101  A    between atoms: _239  and  _242
REMARK  102  A    between atoms: _242  and  _243
REMARK  103  A    between atoms: _248  and  _250
REMARK  104  A    between atoms: _250  and  _251
REMARK  105  A    between atoms: _253  and  _255
REMARK  106  A    between atoms: _255  and  _256
REMARK  107  A    between atoms: _255  and  _258
REMARK  108  A    between atoms: _258  and  _259
REMARK  109  A    between atoms: _262  and  _264
REMARK  110  A    between atoms: _264  and  _265
REMARK  111  A    between atoms: _264  and  _267
REMARK  112  A    between atoms: _267  and  _268
REMARK  113  A    between atoms: _271  and  _273
REMARK  114  A    between atoms: _273  and  _274
REMARK  115  A    between atoms: _273  and  _276
REMARK  116  A    between atoms: _276  and  _277
REMARK  117  A    between atoms: _277  and  _278
REMARK  118  A    between atoms: _278  and  _279
REMARK  119  A    between atoms: _288  and  _290
REMARK  120  A    between atoms: _290  and  _291
REMARK  121  A    between atoms: _290  and  _293
REMARK  122  A    between atoms: _293  and  _294
REMARK  123  A    between atoms: _299  and  _301
REMARK  124  A    between atoms: _301  and  _302
REMARK  125  A    between atoms: _301  and  _304
REMARK  126  A    between atoms: _304  and  _305
REMARK  127  A    between atoms: _311  and  _313
REMARK  128  A    between atoms: _313  and  _314
REMARK  129  A    between atoms: _313  and  _316
REMARK  130  A    between atoms: _316  and  _317
REMARK  131  A    between atoms: _322  and  _324
REMARK  132  A    between atoms: _324  and  _325
REMARK  133  A    between atoms: _324  and  _327
REMARK  134  A    between atoms: _327  and  _328
REMARK  135  A    between atoms: _331  and  _333
REMARK  136  A    between atoms: _333  and  _334
REMARK  137  A    between atoms: _337  and  _339
REMARK  138  A    between atoms: _339  and  _340
REMARK  139  A    between atoms: _343  and  _345
REMARK  140  A    between atoms: _345  and  _346
REMARK  141  A    between atoms: _345  and  _348
REMARK  142  A    between atoms: _348  and  _349
REMARK  143  A    between atoms: _349  and  _350
REMARK  144  A    between atoms: _350  and  _351
REMARK  145  A    between atoms: _360  and  _362
REMARK  146  A    between atoms: _362  and  _363
REMARK  147  A    between atoms: _362  and  _365
REMARK  148  A    between atoms: _365  and  _366
REMARK  149  A    between atoms: _371  and  _373
REMARK  150  A    between atoms: _373  and  _374
REMARK  151  A    between atoms: _373  and  _376
REMARK  152  A    between atoms: _378  and  _380
REMARK  153  A    between atoms: _380  and  _381
REMARK  154  A    between atoms: _380  and  _383
REMARK  155  A    between atoms: _383  and  _384
REMARK  156  A    between atoms: _384  and  _385
REMARK  157  A    between atoms: _387  and  _389
REMARK  158  A    between atoms: _389  and  _390
REMARK  159  A    between atoms: _389  and  _392
REMARK  160  A    between atoms: _392  and  _393
REMARK  161  A    between atoms: _396  and  _398
REMARK  162  A    between atoms: _398  and  _399
REMARK  163  A    between atoms: _398  and  _401
REMARK  164  A    between atoms: _401  and  _402
REMARK  165  A    between atoms: _405  and  _407
REMARK  166  A    between atoms: _407  and  _408
REMARK  167  A    between atoms: _407  and  _410
REMARK  168  A    between atoms: _410  and  _411
REMARK  169  A    between atoms: _411  and  _412
REMARK  170  A    between atoms: _412  and  _413
REMARK  171  A    between atoms: _413  and  _414
REMARK  172  A    between atoms: _418  and  _420
REMARK  173  A    between atoms: _420  and  _421
REMARK  174  A    between atoms: _420  and  _423
REMARK  175  A    between atoms: _426  and  _428
REMARK  176  A    between atoms: _428  and  _429
REMARK  177  A    between atoms: _432  and  _434
REMARK  178  A    between atoms: _434  and  _435
REMARK  179  A    between atoms: _434  and  _437
REMARK  180  A    between atoms: _437  and  _438
REMARK  181  A    between atoms: _441  and  _443
REMARK  182  A    between atoms: _443  and  _444
REMARK  183  A    between atoms: _443  and  _446
REMARK  184  A    between atoms: _446  and  _447
REMARK  185  A    between atoms: _453  and  _455
REMARK  186  A    between atoms: _455  and  _456
REMARK  187  A    between atoms: _455  and  _458
REMARK  188  A    between atoms: _458  and  _459
REMARK  189  A    between atoms: _462  and  _464
REMARK  190  A    between atoms: _464  and  _465
REMARK  191  A    between atoms: _468  and  _470
REMARK  192  A    between atoms: _470  and  _471
REMARK  193  A    between atoms: _470  and  _473
REMARK  194  A    between atoms: _473  and  _474
REMARK  195  A    between atoms: _474  and  _475
REMARK  196  A    between atoms: _475  and  _476
REMARK  197  A    between atoms: _485  and  _487
REMARK  198  A    between atoms: _487  and  _488
REMARK  199  A    between atoms: _487  and  _490
REMARK  200  A    between atoms: _490  and  _491
REMARK  201  A    between atoms: _494  and  _496
REMARK  202  A    between atoms: _496  and  _497
REMARK  203  A    between atoms: _496  and  _499
REMARK  204  A    between atoms: _499  and  _500
REMARK  205  A    between atoms: _500  and  _501
REMARK  206  A    between atoms: _503  and  _505
REMARK  207  A    between atoms: _505  and  _506
REMARK  208  A    between atoms: _505  and  _508
REMARK  209  A    between atoms: _508  and  _509
REMARK  210  A    between atoms: _514  and  _515
REMARK  211  A    between atoms: _517  and  _519
REMARK  212  A    between atoms: _519  and  _520
REMARK  213  A    between atoms: _519  and  _522
REMARK  214  A    between atoms: _522  and  _523
REMARK  215  A    between atoms: _526  and  _528
REMARK  216  A    between atoms: _528  and  _529
REMARK  217  A    between atoms: _528  and  _531
REMARK  218  A    between atoms: _531  and  _532
REMARK  219  A    between atoms: _537  and  _538
REMARK                            x       y       z     vdW  Elec       q    Type
REMARK                         _______ _______ _______ _____ _____    ______ ____
ROOT
ATOM      1  O   HOH     1      25.055  77.909   0.875  0.00  0.00    +0.000 OA
ENDROOT
TORSDOF 0
REMARK  Name = ../refined-set-2016/3zcl/3zcl_pocket.pdb
REMARK  219 active torsions:
REMARK  status: ('A' for Active; 'I' for Inactive)
REMARK    1  A    between atoms: _1  and  _3
REMARK    2  A    between atoms: _3  and  _4
REMARK    3  A    between atoms: _3  and  _6
REMARK    4  A    between atoms: _9  and  _11
REMARK    5  A    between atoms: _11  and  _12
REMARK    6  A    between atoms: _11  and  _14
REMARK    7  A    between atoms: _14  and  _15
REMARK    8  A    between atoms: _18  and  _20
REMARK    9  A    between atoms: _20  and  _21
REMARK   10  A    between atoms: _23  and  _25
REMARK   11  A    between atoms: _25  and  _26
REMARK   12  A    between atoms: _25  and  _28
REMARK   13  A    between atoms: _28  and  _29
REMARK   14  A    between atoms: _29  and  _30
REMARK   15  A    between atoms: _30  and  _31
REMARK   16  A    between atoms: _40  and  _42
REMARK   17  A    between atoms: _42  and  _43
REMARK   18  A    between atoms: _45  and  _47
REMARK   19  A    between atoms: _47  and  _48
REMARK   20  A    between atoms: _47  and  _50
REMARK   21  A    between atoms: _52  and  _54
REMARK   22  A    between atoms: _54  and  _55
REMARK   23  A    between atoms: _54  and  _57
REMARK   24  A    between atoms: _60  and  _62
REMARK   25  A    between atoms: _62  and  _63
REMARK   26  A    between atoms: _62  and  _65
REMARK   27  A    between atoms: _65  and  _66
REMARK   28  A    between atoms: _71  and  _72
REMARK   29  A    between atoms: _74  and  _76
REMARK   30  A    between atoms: _76  and  _77
REMARK   31  A    between atoms: _76  and  _79
REMARK   32  A    between atoms: _79  and  _80
REMARK   33  A    between atoms: _85  and  _87
REMARK   34  A    between atoms: _87  and  _88
REMARK   35  A    between atoms: _90  and  _92
REMARK   36  A    between atoms: _92  and  _93
REMARK   37  A    between atoms: _92  and  _95
REMARK   38  A    between atoms: _95  and  _96
REMARK   39  A    between atoms: _101  and  _103
REMARK   40  A    between atoms: _103  and  _104
REMARK   41  A    between atoms: _103  and  _106
REMARK   42  A    between atoms: _108  and  _110
REMARK   43  A    between atoms: _110  and  _111
REMARK   44  A    between atoms: _114  and  _116
REMARK   45  A    between atoms: _116  and  _117
REMARK   46  A    between atoms: _116  and  _119
REMARK   47  A    between atoms: _122  and  _124
REMARK   48  A    between atoms: _124  and  _125
REMARK   49  A    between atoms: _124  and  _127
REMARK   50  A    between atoms: _127  and  _128
REMARK   51  A    between atoms: _128  and  _129
REMARK   52  A    between atoms: _129  and  _130
REMARK   53  A    between atoms: _130  and  _131
REMARK   54  A    between atoms: _135  and  _137
REMARK   55  A    between atoms: _137  and  _138
REMARK   56  A    between atoms: _137  and  _140
REMARK   57  A    between atoms: _140  and  _141
REMARK   58  A    between atoms: _143  and  _145
REMARK   59  A    between atoms: _145  and  _146
REMARK   60  A    between atoms: _145  and  _148
REMARK   61  A    between atoms: _148  and  _149
REMARK   62  A    between atoms: _149  and  _150
REMARK   63  A    between atoms: _152  and  _154
REMARK   64  A    between atoms: _154  and  _155
REMARK   65  A    between atoms: _154  and  _157
REMARK   66  A    between atoms: _157  and  _158
REMARK   67  A    between atoms: _161  and  _163
REMARK   68  A    between atoms: _163  and  _164
REMARK   69  A    between atoms: _163  and  _166
REMARK   70  A    between atoms: _166  and  _167
REMARK   71  A    between atoms: _169  and  _171
REMARK   72  A    between atoms: _171  and  _172
REMARK   73  A    between atoms: _171  and  _174
REMARK   74  A    between atoms: _177  and  _179
REMARK   75  A    between atoms: _179  and  _180
REMARK   76  A    between atoms: _179  and  _182
REMARK   77  A    between atoms: _185  and  _187
REMARK   78  A    between atoms: _187  and  _188
REMARK   79  A    between atoms: _187  and  _190
REMARK   80  A    between atoms: _190  and  _191
REMARK   81  A    between atoms: _195  and  _196
REMARK   82  A    between atoms: _201  and  _203
REMARK   83  A    between atoms: _203  and  _204
REMARK   84  A    between atoms: _203  and  _206
REMARK   85  A    between atoms: _206  and  _207
REMARK   86  A    between atoms: _212  and  _213
REMARK   87  A    between atoms: _215  and  _217
REMARK   88  A    between atoms: _217  and  _218
REMARK   89  A    between atoms: _217  and  _220
REMARK   90  A    between atoms: _220  and  _221
REMARK   91  A    between atoms: _221  and  _222
REMARK   92  A    between atoms: _224  and  _226
REMARK   93  A    between atoms: _226  and  _227
REMARK   94  A    between atoms: _226  and  _229
REMARK   95  A    between atoms: _229  and  _230
REMARK   96  A    between atoms: _230  and  _231
REMARK   97  A    between atoms: _231  and  _232
REMARK   98  A    between atoms: _232  and  _233
REMARK   99  A    between atoms: _237  and  _239
REMARK  100  A    between atoms: _239  and  _240
REMARK  101  A    between atoms: _239  and  _242
REMARK  102  A    between atoms: _242  and  _243
REMARK  103  A    between atoms: _248  and  _250
REMARK  104  A    between atoms: _250  and  _251
REMARK  105  A    between atoms: _253  and  _255
REMARK  106  A    between atoms: _255  and  _256
REMARK  107  A    between atoms: _255  and  _258
REMARK  108  A    between atoms: _258  and  _259
REMARK  109  A    between atoms: _262  and  _264
REMARK  110  A    between atoms: _264  and  _265
REMARK  111  A    between atoms: _264  and  _267
REMARK  112  A    between atoms: _267  and  _268
REMARK  113  A    between atoms: _271  and  _273
REMARK  114  A    between atoms: _273  and  _274
REMARK  115  A    between atoms: _273  and  _276
REMARK  116  A    between atoms: _276  and  _277
REMARK  117  A    between atoms: _277  and  _278
REMARK  118  A    between atoms: _278  and  _279
REMARK  119  A    between atoms: _288  and  _290
REMARK  120  A    between atoms: _290  and  _291
REMARK  121  A    between atoms: _290  and  _293
REMARK  122  A    between atoms: _293  and  _294
REMARK  123  A    between atoms: _299  and  _301
REMARK  124  A    between atoms: _301  and  _302
REMARK  125  A    between atoms: _301  and  _304
REMARK  126  A    between atoms: _304  and  _305
REMARK  127  A    between atoms: _311  and  _313
REMARK  128  A    between atoms: _313  and  _314
REMARK  129  A    between atoms: _313  and  _316
REMARK  130  A    between atoms: _316  and  _317
REMARK  131  A    between atoms: _322  and  _324
REMARK  132  A    between atoms: _324  and  _325
REMARK  133  A    between atoms: _324  and  _327
REMARK  134  A    between atoms: _327  and  _328
REMARK  135  A    between atoms: _331  and  _333
REMARK  136  A    between atoms: _333  and  _334
REMARK  137  A    between atoms: _337  and  _339
REMARK  138  A    between atoms: _339  and  _340
REMARK  139  A    between atoms: _343  and  _345
REMARK  140  A    between atoms: _345  and  _346
REMARK  141  A    between atoms: _345  and  _348
REMARK  142  A    between atoms: _348  and  _349
REMARK  143  A    between atoms: _349  and  _350
REMARK  144  A    between atoms: _350  and  _351
REMARK  145  A    between atoms: _360  and  _362
REMARK  146  A    between atoms: _362  and  _363
REMARK  147  A    between atoms: _362  and  _365
REMARK  148  A    between atoms: _365  and  _366
REMARK  149  A    between atoms: _371  and  _373
REMARK  150  A    between atoms: _373  and  _374
REMARK  151  A    between atoms: _373  and  _376
REMARK  152  A    between atoms: _378  and  _380
REMARK  153  A    between atoms: _380  and  _381
REMARK  154  A    between atoms: _380  and  _383
REMARK  155  A    between atoms: _383  and  _384
REMARK  156  A    between atoms: _384  and  _385
REMARK  157  A    between atoms: _387  and  _389
REMARK  158  A    between atoms: _389  and  _390
REMARK  159  A    between atoms: _389  and  _392
REMARK  160  A    between atoms: _392  and  _393
REMARK  161  A    between atoms: _396  and  _398
REMARK  162  A    between atoms: _398  and  _399
REMARK  163  A    between atoms: _398  and  _401
REMARK  164  A    between atoms: _401  and  _402
REMARK  165  A    between atoms: _405  and  _407
REMARK  166  A    between atoms: _407  and  _408
REMARK  167  A    between atoms: _407  and  _410
REMARK  168  A    between atoms: _410  and  _411
REMARK  169  A    between atoms: _411  and  _412
REMARK  170  A    between atoms: _412  and  _413
REMARK  171  A    between atoms: _413  and  _414
REMARK  172  A    between atoms: _418  and  _420
REMARK  173  A    between atoms: _420  and  _421
REMARK  174  A    between atoms: _420  and  _423
REMARK  175  A    between atoms: _426  and  _428
REMARK  176  A    between atoms: _428  and  _429
REMARK  177  A    between atoms: _432  and  _434
REMARK  178  A    between atoms: _434  and  _435
REMARK  179  A    between atoms: _434  and  _437
REMARK  180  A    between atoms: _437  and  _438
REMARK  181  A    between atoms: _441  and  _443
REMARK  182  A    between atoms: _443  and  _444
REMARK  183  A    between atoms: _443  and  _446
REMARK  184  A    between atoms: _446  and  _447
REMARK  185  A    between atoms: _453  and  _455
REMARK  186  A    between atoms: _455  and  _456
REMARK  187  A    between atoms: _455  and  _458
REMARK  188  A    between atoms: _458  and  _459
REMARK  189  A    between atoms: _462  and  _464
REMARK  190  A    between atoms: _464  and  _465
REMARK  191  A    between atoms: _468  and  _470
REMARK  192  A    between atoms: _470  and  _471
REMARK  193  A    between atoms: _470  and  _473
REMARK  194  A    between atoms: _473  and  _474
REMARK  195  A    between atoms: _474  and  _475
REMARK  196  A    between atoms: _475  and  _476
REMARK  197  A    between atoms: _485  and  _487
REMARK  198  A    between atoms: _487  and  _488
REMARK  199  A    between atoms: _487  and  _490
REMARK  200  A    between atoms: _490  and  _491
REMARK  201  A    between atoms: _494  and  _496
REMARK  202  A    between atoms: _496  and  _497
REMARK  203  A    between atoms: _496  and  _499
REMARK  204  A    between atoms: _499  and  _500
REMARK  205  A    between atoms: _500  and  _501
REMARK  206  A    between atoms: _503  and  _505
REMARK  207  A    between atoms: _505  and  _506
REMARK  208  A    between atoms: _505  and  _508
REMARK  209  A    between atoms: _508  and  _509
REMARK  210  A    between atoms: _514  and  _515
REMARK  211  A    between atoms: _517  and  _519
REMARK  212  A    between atoms: _519  and  _520
REMARK  213  A    between atoms: _519  and  _522
REMARK  214  A    between atoms: _522  and  _523
REMARK  215  A    between atoms: _526  and  _528
REMARK  216  A    between atoms: _528  and  _529
REMARK  217  A    between atoms: _528  and  _531
REMARK  218  A    between atoms: _531  and  _532
REMARK  219  A    between atoms: _537  and  _538
REMARK                            x       y       z     vdW  Elec       q    Type
REMARK                         _______ _______ _______ _____ _____    ______ ____
ROOT
ATOM      1  O   HOH     1      22.940  80.538   0.439  0.00  0.00    +0.000 OA
ENDROOT
TORSDOF 0
REMARK  Name = ../refined-set-2016/3zcl/3zcl_pocket.pdb
REMARK  219 active torsions:
REMARK  status: ('A' for Active; 'I' for Inactive)
REMARK    1  A    between atoms: _1  and  _3
REMARK    2  A    between atoms: _3  and  _4
REMARK    3  A    between atoms: _3  and  _6
REMARK    4  A    between atoms: _9  and  _11
REMARK    5  A    between atoms: _11  and  _12
REMARK    6  A    between atoms: _11  and  _14
REMARK    7  A    between atoms: _14  and  _15
REMARK    8  A    between atoms: _18  and  _20
REMARK    9  A    between atoms: _20  and  _21
REMARK   10  A    between atoms: _23  and  _25
REMARK   11  A    between atoms: _25  and  _26
REMARK   12  A    between atoms: _25  and  _28
REMARK   13  A    between atoms: _28  and  _29
REMARK   14  A    between atoms: _29  and  _30
REMARK   15  A    between atoms: _30  and  _31
REMARK   16  A    between atoms: _40  and  _42
REMARK   17  A    between atoms: _42  and  _43
REMARK   18  A    between atoms: _45  and  _47
REMARK   19  A    between atoms: _47  and  _48
REMARK   20  A    between atoms: _47  and  _50
REMARK   21  A    between atoms: _52  and  _54
REMARK   22  A    between atoms: _54  and  _55
REMARK   23  A    between atoms: _54  and  _57
REMARK   24  A    between atoms: _60  and  _62
REMARK   25  A    between atoms: _62  and  _63
REMARK   26  A    between atoms: _62  and  _65
REMARK   27  A    between atoms: _65  and  _66
REMARK   28  A    between atoms: _71  and  _72
REMARK   29  A    between atoms: _74  and  _76
REMARK   30  A    between atoms: _76  and  _77
REMARK   31  A    between atoms: _76  and  _79
REMARK   32  A    between atoms: _79  and  _80
REMARK   33  A    between atoms: _85  and  _87
REMARK   34  A    between atoms: _87  and  _88
REMARK   35  A    between atoms: _90  and  _92
REMARK   36  A    between atoms: _92  and  _93
REMARK   37  A    between atoms: _92  and  _95
REMARK   38  A    between atoms: _95  and  _96
REMARK   39  A    between atoms: _101  and  _103
REMARK   40  A    between atoms: _103  and  _104
REMARK   41  A    between atoms: _103  and  _106
REMARK   42  A    between atoms: _108  and  _110
REMARK   43  A    between atoms: _110  and  _111
REMARK   44  A    between atoms: _114  and  _116
REMARK   45  A    between atoms: _116  and  _117
REMARK   46  A    between atoms: _116  and  _119
REMARK   47  A    between atoms: _122  and  _124
REMARK   48  A    between atoms: _124  and  _125
REMARK   49  A    between atoms: _124  and  _127
REMARK   50  A    between atoms: _127  and  _128
REMARK   51  A    between atoms: _128  and  _129
REMARK   52  A    between atoms: _129  and  _130
REMARK   53  A    between atoms: _130  and  _131
REMARK   54  A    between atoms: _135  and  _137
REMARK   55  A    between atoms: _137  and  _138
REMARK   56  A    between atoms: _137  and  _140
REMARK   57  A    between atoms: _140  and  _141
REMARK   58  A    between atoms: _143  and  _145
REMARK   59  A    between atoms: _145  and  _146
REMARK   60  A    between atoms: _145  and  _148
REMARK   61  A    between atoms: _148  and  _149
REMARK   62  A    between atoms: _149  and  _150
REMARK   63  A    between atoms: _152  and  _154
REMARK   64  A    between atoms: _154  and  _155
REMARK   65  A    between atoms: _154  and  _157
REMARK   66  A    between atoms: _157  and  _158
REMARK   67  A    between atoms: _161  and  _163
REMARK   68  A    between atoms: _163  and  _164
REMARK   69  A    between atoms: _163  and  _166
REMARK   70  A    between atoms: _166  and  _167
REMARK   71  A    between atoms: _169  and  _171
REMARK   72  A    between atoms: _171  and  _172
REMARK   73  A    between atoms: _171  and  _174
REMARK   74  A    between atoms: _177  and  _179
REMARK   75  A    between atoms: _179  and  _180
REMARK   76  A    between atoms: _179  and  _182
REMARK   77  A    between atoms: _185  and  _187
REMARK   78  A    between atoms: _187  and  _188
REMARK   79  A    between atoms: _187  and  _190
REMARK   80  A    between atoms: _190  and  _191
REMARK   81  A    between atoms: _195  and  _196
REMARK   82  A    between atoms: _201  and  _203
REMARK   83  A    between atoms: _203  and  _204
REMARK   84  A    between atoms: _203  and  _206
REMARK   85  A    between atoms: _206  and  _207
REMARK   86  A    between atoms: _212  and  _213
REMARK   87  A    between atoms: _215  and  _217
REMARK   88  A    between atoms: _217  and  _218
REMARK   89  A    between atoms: _217  and  _220
REMARK   90  A    between atoms: _220  and  _221
REMARK   91  A    between atoms: _221  and  _222
REMARK   92  A    between atoms: _224  and  _226
REMARK   93  A    between atoms: _226  and  _227
REMARK   94  A    between atoms: _226  and  _229
REMARK   95  A    between atoms: _229  and  _230
REMARK   96  A    between atoms: _230  and  _231
REMARK   97  A    between atoms: _231  and  _232
REMARK   98  A    between atoms: _232  and  _233
REMARK   99  A    between atoms: _237  and  _239
REMARK  100  A    between atoms: _239  and  _240
REMARK  101  A    between atoms: _239  and  _242
REMARK  102  A    between atoms: _242  and  _243
REMARK  103  A    between atoms: _248  and  _250
REMARK  104  A    between atoms: _250  and  _251
REMARK  105  A    between atoms: _253  and  _255
REMARK  106  A    between atoms: _255  and  _256
REMARK  107  A    between atoms: _255  and  _258
REMARK  108  A    between atoms: _258  and  _259
REMARK  109  A    between atoms: _262  and  _264
REMARK  110  A    between atoms: _264  and  _265
REMARK  111  A    between atoms: _264  and  _267
REMARK  112  A    between atoms: _267  and  _268
REMARK  113  A    between atoms: _271  and  _273
REMARK  114  A    between atoms: _273  and  _274
REMARK  115  A    between atoms: _273  and  _276
REMARK  116  A    between atoms: _276  and  _277
REMARK  117  A    between atoms: _277  and  _278
REMARK  118  A    between atoms: _278  and  _279
REMARK  119  A    between atoms: _288  and  _290
REMARK  120  A    between atoms: _290  and  _291
REMARK  121  A    between atoms: _290  and  _293
REMARK  122  A    between atoms: _293  and  _294
REMARK  123  A    between atoms: _299  and  _301
REMARK  124  A    between atoms: _301  and  _302
REMARK  125  A    between atoms: _301  and  _304
REMARK  126  A    between atoms: _304  and  _305
REMARK  127  A    between atoms: _311  and  _313
REMARK  128  A    between atoms: _313  and  _314
REMARK  129  A    between atoms: _313  and  _316
REMARK  130  A    between atoms: _316  and  _317
REMARK  131  A    between atoms: _322  and  _324
REMARK  132  A    between atoms: _324  and  _325
REMARK  133  A    between atoms: _324  and  _327
REMARK  134  A    between atoms: _327  and  _328
REMARK  135  A    between atoms: _331  and  _333
REMARK  136  A    between atoms: _333  and  _334
REMARK  137  A    between atoms: _337  and  _339
REMARK  138  A    between atoms: _339  and  _340
REMARK  139  A    between atoms: _343  and  _345
REMARK  140  A    between atoms: _345  and  _346
REMARK  141  A    between atoms: _345  and  _348
REMARK  142  A    between atoms: _348  and  _349
REMARK  143  A    between atoms: _349  and  _350
REMARK  144  A    between atoms: _350  and  _351
REMARK  145  A    between atoms: _360  and  _362
REMARK  146  A    between atoms: _362  and  _363
REMARK  147  A    between atoms: _362  and  _365
REMARK  148  A    between atoms: _365  and  _366
REMARK  149  A    between atoms: _371  and  _373
REMARK  150  A    between atoms: _373  and  _374
REMARK  151  A    between atoms: _373  and  _376
REMARK  152  A    between atoms: _378  and  _380
REMARK  153  A    between atoms: _380  and  _381
REMARK  154  A    between atoms: _380  and  _383
REMARK  155  A    between atoms: _383  and  _384
REMARK  156  A    between atoms: _384  and  _385
REMARK  157  A    between atoms: _387  and  _389
REMARK  158  A    between atoms: _389  and  _390
REMARK  159  A    between atoms: _389  and  _392
REMARK  160  A    between atoms: _392  and  _393
REMARK  161  A    between atoms: _396  and  _398
REMARK  162  A    between atoms: _398  and  _399
REMARK  163  A    between atoms: _398  and  _401
REMARK  164  A    between atoms: _401  and  _402
REMARK  165  A    between atoms: _405  and  _407
REMARK  166  A    between atoms: _407  and  _408
REMARK  167  A    between atoms: _407  and  _410
REMARK  168  A    between atoms: _410  and  _411
REMARK  169  A    between atoms: _411  and  _412
REMARK  170  A    between atoms: _412  and  _413
REMARK  171  A    between atoms: _413  and  _414
REMARK  172  A    between atoms: _418  and  _420
REMARK  173  A    between atoms: _420  and  _421
REMARK  174  A    between atoms: _420  and  _423
REMARK  175  A    between atoms: _426  and  _428
REMARK  176  A    between atoms: _428  and  _429
REMARK  177  A    between atoms: _432  and  _434
REMARK  178  A    between atoms: _434  and  _435
REMARK  179  A    between atoms: _434  and  _437
REMARK  180  A    between atoms: _437  and  _438
REMARK  181  A    between atoms: _441  and  _443
REMARK  182  A    between atoms: _443  and  _444
REMARK  183  A    between atoms: _443  and  _446
REMARK  184  A    between atoms: _446  and  _447
REMARK  185  A    between atoms: _453  and  _455
REMARK  186  A    between atoms: _455  and  _456
REMARK  187  A    between atoms: _455  and  _458
REMARK  188  A    between atoms: _458  and  _459
REMARK  189  A    between atoms: _462  and  _464
REMARK  190  A    between atoms: _464  and  _465
REMARK  191  A    between atoms: _468  and  _470
REMARK  192  A    between atoms: _470  and  _471
REMARK  193  A    between atoms: _470  and  _473
REMARK  194  A    between atoms: _473  and  _474
REMARK  195  A    between atoms: _474  and  _475
REMARK  196  A    between atoms: _475  and  _476
REMARK  197  A    between atoms: _485  and  _487
REMARK  198  A    between atoms: _487  and  _488
REMARK  199  A    between atoms: _487  and  _490
REMARK  200  A    between atoms: _490  and  _491
REMARK  201  A    between atoms: _494  and  _496
REMARK  202  A    between atoms: _496  and  _497
REMARK  203  A    between atoms: _496  and  _499
REMARK  204  A    between atoms: _499  and  _500
REMARK  205  A    between atoms: _500  and  _501
REMARK  206  A    between atoms: _503  and  _505
REMARK  207  A    between atoms: _505  and  _506
REMARK  208  A    between atoms: _505  and  _508
REMARK  209  A    between atoms: _508  and  _509
REMARK  210  A    between atoms: _514  and  _515
REMARK  211  A    between atoms: _517  and  _519
REMARK  212  A    between atoms: _519  and  _520
REMARK  213  A    between atoms: _519  and  _522
REMARK  214  A    between atoms: _522  and  _523
REMARK  215  A    between atoms: _526  and  _528
REMARK  216  A    between atoms: _528  and  _529
REMARK  217  A    between atoms: _528  and  _531
REMARK  218  A    between atoms: _531  and  _532
REMARK  219  A    between atoms: _537  and  _538
REMARK                            x       y       z     vdW  Elec       q    Type
REMARK                         _______ _______ _______ _____ _____    ______ ____
ROOT
ATOM      1  O   HOH     1      17.837  76.756   0.294  0.00  0.00    +0.000 OA
ENDROOT
TORSDOF 0
REMARK  Name = ../refined-set-2016/3zcl/3zcl_pocket.pdb
REMARK  219 active torsions:
REMARK  status: ('A' for Active; 'I' for Inactive)
REMARK    1  A    between atoms: _1  and  _3
REMARK    2  A    between atoms: _3  and  _4
REMARK    3  A    between atoms: _3  and  _6
REMARK    4  A    between atoms: _9  and  _11
REMARK    5  A    between atoms: _11  and  _12
REMARK    6  A    between atoms: _11  and  _14
REMARK    7  A    between atoms: _14  and  _15
REMARK    8  A    between atoms: _18  and  _20
REMARK    9  A    between atoms: _20  and  _21
REMARK   10  A    between atoms: _23  and  _25
REMARK   11  A    between atoms: _25  and  _26
REMARK   12  A    between atoms: _25  and  _28
REMARK   13  A    between atoms: _28  and  _29
REMARK   14  A    between atoms: _29  and  _30
REMARK   15  A    between atoms: _30  and  _31
REMARK   16  A    between atoms: _40  and  _42
REMARK   17  A    between atoms: _42  and  _43
REMARK   18  A    between atoms: _45  and  _47
REMARK   19  A    between atoms: _47  and  _48
REMARK   20  A    between atoms: _47  and  _50
REMARK   21  A    between atoms: _52  and  _54
REMARK   22  A    between atoms: _54  and  _55
REMARK   23  A    between atoms: _54  and  _57
REMARK   24  A    between atoms: _60  and  _62
REMARK   25  A    between atoms: _62  and  _63
REMARK   26  A    between atoms: _62  and  _65
REMARK   27  A    between atoms: _65  and  _66
REMARK   28  A    between atoms: _71  and  _72
REMARK   29  A    between atoms: _74  and  _76
REMARK   30  A    between atoms: _76  and  _77
REMARK   31  A    between atoms: _76  and  _79
REMARK   32  A    between atoms: _79  and  _80
REMARK   33  A    between atoms: _85  and  _87
REMARK   34  A    between atoms: _87  and  _88
REMARK   35  A    between atoms: _90  and  _92
REMARK   36  A    between atoms: _92  and  _93
REMARK   37  A    between atoms: _92  and  _95
REMARK   38  A    between atoms: _95  and  _96
REMARK   39  A    between atoms: _101  and  _103
REMARK   40  A    between atoms: _103  and  _104
REMARK   41  A    between atoms: _103  and  _106
REMARK   42  A    between atoms: _108  and  _110
REMARK   43  A    between atoms: _110  and  _111
REMARK   44  A    between atoms: _114  and  _116
REMARK   45  A    between atoms: _116  and  _117
REMARK   46  A    between atoms: _116  and  _119
REMARK   47  A    between atoms: _122  and  _124
REMARK   48  A    between atoms: _124  and  _125
REMARK   49  A    between atoms: _124  and  _127
REMARK   50  A    between atoms: _127  and  _128
REMARK   51  A    between atoms: _128  and  _129
REMARK   52  A    between atoms: _129  and  _130
REMARK   53  A    between atoms: _130  and  _131
REMARK   54  A    between atoms: _135  and  _137
REMARK   55  A    between atoms: _137  and  _138
REMARK   56  A    between atoms: _137  and  _140
REMARK   57  A    between atoms: _140  and  _141
REMARK   58  A    between atoms: _143  and  _145
REMARK   59  A    between atoms: _145  and  _146
REMARK   60  A    between atoms: _145  and  _148
REMARK   61  A    between atoms: _148  and  _149
REMARK   62  A    between atoms: _149  and  _150
REMARK   63  A    between atoms: _152  and  _154
REMARK   64  A    between atoms: _154  and  _155
REMARK   65  A    between atoms: _154  and  _157
REMARK   66  A    between atoms: _157  and  _158
REMARK   67  A    between atoms: _161  and  _163
REMARK   68  A    between atoms: _163  and  _164
REMARK   69  A    between atoms: _163  and  _166
REMARK   70  A    between atoms: _166  and  _167
REMARK   71  A    between atoms: _169  and  _171
REMARK   72  A    between atoms: _171  and  _172
REMARK   73  A    between atoms: _171  and  _174
REMARK   74  A    between atoms: _177  and  _179
REMARK   75  A    between atoms: _179  and  _180
REMARK   76  A    between atoms: _179  and  _182
REMARK   77  A    between atoms: _185  and  _187
REMARK   78  A    between atoms: _187  and  _188
REMARK   79  A    between atoms: _187  and  _190
REMARK   80  A    between atoms: _190  and  _191
REMARK   81  A    between atoms: _195  and  _196
REMARK   82  A    between atoms: _201  and  _203
REMARK   83  A    between atoms: _203  and  _204
REMARK   84  A    between atoms: _203  and  _206
REMARK   85  A    between atoms: _206  and  _207
REMARK   86  A    between atoms: _212  and  _213
REMARK   87  A    between atoms: _215  and  _217
REMARK   88  A    between atoms: _217  and  _218
REMARK   89  A    between atoms: _217  and  _220
REMARK   90  A    between atoms: _220  and  _221
REMARK   91  A    between atoms: _221  and  _222
REMARK   92  A    between atoms: _224  and  _226
REMARK   93  A    between atoms: _226  and  _227
REMARK   94  A    between atoms: _226  and  _229
REMARK   95  A    between atoms: _229  and  _230
REMARK   96  A    between atoms: _230  and  _231
REMARK   97  A    between atoms: _231  and  _232
REMARK   98  A    between atoms: _232  and  _233
REMARK   99  A    between atoms: _237  and  _239
REMARK  100  A    between atoms: _239  and  _240
REMARK  101  A    between atoms: _239  and  _242
REMARK  102  A    between atoms: _242  and  _243
REMARK  103  A    between atoms: _248  and  _250
REMARK  104  A    between atoms: _250  and  _251
REMARK  105  A    between atoms: _253  and  _255
REMARK  106  A    between atoms: _255  and  _256
REMARK  107  A    between atoms: _255  and  _258
REMARK  108  A    between atoms: _258  and  _259
REMARK  109  A    between atoms: _262  and  _264
REMARK  110  A    between atoms: _264  and  _265
REMARK  111  A    between atoms: _264  and  _267
REMARK  112  A    between atoms: _267  and  _268
REMARK  113  A    between atoms: _271  and  _273
REMARK  114  A    between atoms: _273  and  _274
REMARK  115  A    between atoms: _273  and  _276
REMARK  116  A    between atoms: _276  and  _277
REMARK  117  A    between atoms: _277  and  _278
REMARK  118  A    between atoms: _278  and  _279
REMARK  119  A    between atoms: _288  and  _290
REMARK  120  A    between atoms: _290  and  _291
REMARK  121  A    between atoms: _290  and  _293
REMARK  122  A    between atoms: _293  and  _294
REMARK  123  A    between atoms: _299  and  _301
REMARK  124  A    between atoms: _301  and  _302
REMARK  125  A    between atoms: _301  and  _304
REMARK  126  A    between atoms: _304  and  _305
REMARK  127  A    between atoms: _311  and  _313
REMARK  128  A    between atoms: _313  and  _314
REMARK  129  A    between atoms: _313  and  _316
REMARK  130  A    between atoms: _316  and  _317
REMARK  131  A    between atoms: _322  and  _324
REMARK  132  A    between atoms: _324  and  _325
REMARK  133  A    between atoms: _324  and  _327
REMARK  134  A    between atoms: _327  and  _328
REMARK  135  A    between atoms: _331  and  _333
REMARK  136  A    between atoms: _333  and  _334
REMARK  137  A    between atoms: _337  and  _339
REMARK  138  A    between atoms: _339  and  _340
REMARK  139  A    between atoms: _343  and  _345
REMARK  140  A    between atoms: _345  and  _346
REMARK  141  A    between atoms: _345  and  _348
REMARK  142  A    between atoms: _348  and  _349
REMARK  143  A    between atoms: _349  and  _350
REMARK  144  A    between atoms: _350  and  _351
REMARK  145  A    between atoms: _360  and  _362
REMARK  146  A    between atoms: _362  and  _363
REMARK  147  A    between atoms: _362  and  _365
REMARK  148  A    between atoms: _365  and  _366
REMARK  149  A    between atoms: _371  and  _373
REMARK  150  A    between atoms: _373  and  _374
REMARK  151  A    between atoms: _373  and  _376
REMARK  152  A    between atoms: _378  and  _380
REMARK  153  A    between atoms: _380  and  _381
REMARK  154  A    between atoms: _380  and  _383
REMARK  155  A    between atoms: _383  and  _384
REMARK  156  A    between atoms: _384  and  _385
REMARK  157  A    between atoms: _387  and  _389
REMARK  158  A    between atoms: _389  and  _390
REMARK  159  A    between atoms: _389  and  _392
REMARK  160  A    between atoms: _392  and  _393
REMARK  161  A    between atoms: _396  and  _398
REMARK  162  A    between atoms: _398  and  _399
REMARK  163  A    between atoms: _398  and  _401
REMARK  164  A    between atoms: _401  and  _402
REMARK  165  A    between atoms: _405  and  _407
REMARK  166  A    between atoms: _407  and  _408
REMARK  167  A    between atoms: _407  and  _410
REMARK  168  A    between atoms: _410  and  _411
REMARK  169  A    between atoms: _411  and  _412
REMARK  170  A    between atoms: _412  and  _413
REMARK  171  A    between atoms: _413  and  _414
REMARK  172  A    between atoms: _418  and  _420
REMARK  173  A    between atoms: _420  and  _421
REMARK  174  A    between atoms: _420  and  _423
REMARK  175  A    between atoms: _426  and  _428
REMARK  176  A    between atoms: _428  and  _429
REMARK  177  A    between atoms: _432  and  _434
REMARK  178  A    between atoms: _434  and  _435
REMARK  179  A    between atoms: _434  and  _437
REMARK  180  A    between atoms: _437  and  _438
REMARK  181  A    between atoms: _441  and  _443
REMARK  182  A    between atoms: _443  and  _444
REMARK  183  A    between atoms: _443  and  _446
REMARK  184  A    between atoms: _446  and  _447
REMARK  185  A    between atoms: _453  and  _455
REMARK  186  A    between atoms: _455  and  _456
REMARK  187  A    between atoms: _455  and  _458
REMARK  188  A    between atoms: _458  and  _459
REMARK  189  A    between atoms: _462  and  _464
REMARK  190  A    between atoms: _464  and  _465
REMARK  191  A    between atoms: _468  and  _470
REMARK  192  A    between atoms: _470  and  _471
REMARK  193  A    between atoms: _470  and  _473
REMARK  194  A    between atoms: _473  and  _474
REMARK  195  A    between atoms: _474  and  _475
REMARK  196  A    between atoms: _475  and  _476
REMARK  197  A    between atoms: _485  and  _487
REMARK  198  A    between atoms: _487  and  _488
REMARK  199  A    between atoms: _487  and  _490
REMARK  200  A    between atoms: _490  and  _491
REMARK  201  A    between atoms: _494  and  _496
REMARK  202  A    between atoms: _496  and  _497
REMARK  203  A    between atoms: _496  and  _499
REMARK  204  A    between atoms: _499  and  _500
REMARK  205  A    between atoms: _500  and  _501
REMARK  206  A    between atoms: _503  and  _505
REMARK  207  A    between atoms: _505  and  _506
REMARK  208  A    between atoms: _505  and  _508
REMARK  209  A    between atoms: _508  and  _509
REMARK  210  A    between atoms: _514  and  _515
REMARK  211  A    between atoms: _517  and  _519
REMARK  212  A    between atoms: _519  and  _520
REMARK  213  A    between atoms: _519  and  _522
REMARK  214  A    between atoms: _522  and  _523
REMARK  215  A    between atoms: _526  and  _528
REMARK  216  A    between atoms: _528  and  _529
REMARK  217  A    between atoms: _528  and  _531
REMARK  218  A    between atoms: _531  and  _532
REMARK  219  A    between atoms: _537  and  _538
REMARK                            x       y       z     vdW  Elec       q    Type
REMARK                         _______ _______ _______ _____ _____    ______ ____
ROOT
ATOM      1  O   HOH     1      18.354  75.286  -2.111  0.00  0.00    +0.000 OA
ENDROOT
TORSDOF 0
REMARK  Name = ../refined-set-2016/3zcl/3zcl_pocket.pdb
REMARK  219 active torsions:
REMARK  status: ('A' for Active; 'I' for Inactive)
REMARK    1  A    between atoms: _1  and  _3
REMARK    2  A    between atoms: _3  and  _4
REMARK    3  A    between atoms: _3  and  _6
REMARK    4  A    between atoms: _9  and  _11
REMARK    5  A    between atoms: _11  and  _12
REMARK    6  A    between atoms: _11  and  _14
REMARK    7  A    between atoms: _14  and  _15
REMARK    8  A    between atoms: _18  and  _20
REMARK    9  A    between atoms: _20  and  _21
REMARK   10  A    between atoms: _23  and  _25
REMARK   11  A    between atoms: _25  and  _26
REMARK   12  A    between atoms: _25  and  _28
REMARK   13  A    between atoms: _28  and  _29
REMARK   14  A    between atoms: _29  and  _30
REMARK   15  A    between atoms: _30  and  _31
REMARK   16  A    between atoms: _40  and  _42
REMARK   17  A    between atoms: _42  and  _43
REMARK   18  A    between atoms: _45  and  _47
REMARK   19  A    between atoms: _47  and  _48
REMARK   20  A    between atoms: _47  and  _50
REMARK   21  A    between atoms: _52  and  _54
REMARK   22  A    between atoms: _54  and  _55
REMARK   23  A    between atoms: _54  and  _57
REMARK   24  A    between atoms: _60  and  _62
REMARK   25  A    between atoms: _62  and  _63
REMARK   26  A    between atoms: _62  and  _65
REMARK   27  A    between atoms: _65  and  _66
REMARK   28  A    between atoms: _71  and  _72
REMARK   29  A    between atoms: _74  and  _76
REMARK   30  A    between atoms: _76  and  _77
REMARK   31  A    between atoms: _76  and  _79
REMARK   32  A    between atoms: _79  and  _80
REMARK   33  A    between atoms: _85  and  _87
REMARK   34  A    between atoms: _87  and  _88
REMARK   35  A    between atoms: _90  and  _92
REMARK   36  A    between atoms: _92  and  _93
REMARK   37  A    between atoms: _92  and  _95
REMARK   38  A    between atoms: _95  and  _96
REMARK   39  A    between atoms: _101  and  _103
REMARK   40  A    between atoms: _103  and  _104
REMARK   41  A    between atoms: _103  and  _106
REMARK   42  A    between atoms: _108  and  _110
REMARK   43  A    between atoms: _110  and  _111
REMARK   44  A    between atoms: _114  and  _116
REMARK   45  A    between atoms: _116  and  _117
REMARK   46  A    between atoms: _116  and  _119
REMARK   47  A    between atoms: _122  and  _124
REMARK   48  A    between atoms: _124  and  _125
REMARK   49  A    between atoms: _124  and  _127
REMARK   50  A    between atoms: _127  and  _128
REMARK   51  A    between atoms: _128  and  _129
REMARK   52  A    between atoms: _129  and  _130
REMARK   53  A    between atoms: _130  and  _131
REMARK   54  A    between atoms: _135  and  _137
REMARK   55  A    between atoms: _137  and  _138
REMARK   56  A    between atoms: _137  and  _140
REMARK   57  A    between atoms: _140  and  _141
REMARK   58  A    between atoms: _143  and  _145
REMARK   59  A    between atoms: _145  and  _146
REMARK   60  A    between atoms: _145  and  _148
REMARK   61  A    between atoms: _148  and  _149
REMARK   62  A    between atoms: _149  and  _150
REMARK   63  A    between atoms: _152  and  _154
REMARK   64  A    between atoms: _154  and  _155
REMARK   65  A    between atoms: _154  and  _157
REMARK   66  A    between atoms: _157  and  _158
REMARK   67  A    between atoms: _161  and  _163
REMARK   68  A    between atoms: _163  and  _164
REMARK   69  A    between atoms: _163  and  _166
REMARK   70  A    between atoms: _166  and  _167
REMARK   71  A    between atoms: _169  and  _171
REMARK   72  A    between atoms: _171  and  _172
REMARK   73  A    between atoms: _171  and  _174
REMARK   74  A    between atoms: _177  and  _179
REMARK   75  A    between atoms: _179  and  _180
REMARK   76  A    between atoms: _179  and  _182
REMARK   77  A    between atoms: _185  and  _187
REMARK   78  A    between atoms: _187  and  _188
REMARK   79  A    between atoms: _187  and  _190
REMARK   80  A    between atoms: _190  and  _191
REMARK   81  A    between atoms: _195  and  _196
REMARK   82  A    between atoms: _201  and  _203
REMARK   83  A    between atoms: _203  and  _204
REMARK   84  A    between atoms: _203  and  _206
REMARK   85  A    between atoms: _206  and  _207
REMARK   86  A    between atoms: _212  and  _213
REMARK   87  A    between atoms: _215  and  _217
REMARK   88  A    between atoms: _217  and  _218
REMARK   89  A    between atoms: _217  and  _220
REMARK   90  A    between atoms: _220  and  _221
REMARK   91  A    between atoms: _221  and  _222
REMARK   92  A    between atoms: _224  and  _226
REMARK   93  A    between atoms: _226  and  _227
REMARK   94  A    between atoms: _226  and  _229
REMARK   95  A    between atoms: _229  and  _230
REMARK   96  A    between atoms: _230  and  _231
REMARK   97  A    between atoms: _231  and  _232
REMARK   98  A    between atoms: _232  and  _233
REMARK   99  A    between atoms: _237  and  _239
REMARK  100  A    between atoms: _239  and  _240
REMARK  101  A    between atoms: _239  and  _242
REMARK  102  A    between atoms: _242  and  _243
REMARK  103  A    between atoms: _248  and  _250
REMARK  104  A    between atoms: _250  and  _251
REMARK  105  A    between atoms: _253  and  _255
REMARK  106  A    between atoms: _255  and  _256
REMARK  107  A    between atoms: _255  and  _258
REMARK  108  A    between atoms: _258  and  _259
REMARK  109  A    between atoms: _262  and  _264
REMARK  110  A    between atoms: _264  and  _265
REMARK  111  A    between atoms: _264  and  _267
REMARK  112  A    between atoms: _267  and  _268
REMARK  113  A    between atoms: _271  and  _273
REMARK  114  A    between atoms: _273  and  _274
REMARK  115  A    between atoms: _273  and  _276
REMARK  116  A    between atoms: _276  and  _277
REMARK  117  A    between atoms: _277  and  _278
REMARK  118  A    between atoms: _278  and  _279
REMARK  119  A    between atoms: _288  and  _290
REMARK  120  A    between atoms: _290  and  _291
REMARK  121  A    between atoms: _290  and  _293
REMARK  122  A    between atoms: _293  and  _294
REMARK  123  A    between atoms: _299  and  _301
REMARK  124  A    between atoms: _301  and  _302
REMARK  125  A    between atoms: _301  and  _304
REMARK  126  A    between atoms: _304  and  _305
REMARK  127  A    between atoms: _311  and  _313
REMARK  128  A    between atoms: _313  and  _314
REMARK  129  A    between atoms: _313  and  _316
REMARK  130  A    between atoms: _316  and  _317
REMARK  131  A    between atoms: _322  and  _324
REMARK  132  A    between atoms: _324  and  _325
REMARK  133  A    between atoms: _324  and  _327
REMARK  134  A    between atoms: _327  and  _328
REMARK  135  A    between atoms: _331  and  _333
REMARK  136  A    between atoms: _333  and  _334
REMARK  137  A    between atoms: _337  and  _339
REMARK  138  A    between atoms: _339  and  _340
REMARK  139  A    between atoms: _343  and  _345
REMARK  140  A    between atoms: _345  and  _346
REMARK  141  A    between atoms: _345  and  _348
REMARK  142  A    between atoms: _348  and  _349
REMARK  143  A    between atoms: _349  and  _350
REMARK  144  A    between atoms: _350  and  _351
REMARK  145  A    between atoms: _360  and  _362
REMARK  146  A    between atoms: _362  and  _363
REMARK  147  A    between atoms: _362  and  _365
REMARK  148  A    between atoms: _365  and  _366
REMARK  149  A    between atoms: _371  and  _373
REMARK  150  A    between atoms: _373  and  _374
REMARK  151  A    between atoms: _373  and  _376
REMARK  152  A    between atoms: _378  and  _380
REMARK  153  A    between atoms: _380  and  _381
REMARK  154  A    between atoms: _380  and  _383
REMARK  155  A    between atoms: _383  and  _384
REMARK  156  A    between atoms: _384  and  _385
REMARK  157  A    between atoms: _387  and  _389
REMARK  158  A    between atoms: _389  and  _390
REMARK  159  A    between atoms: _389  and  _392
REMARK  160  A    between atoms: _392  and  _393
REMARK  161  A    between atoms: _396  and  _398
REMARK  162  A    between atoms: _398  and  _399
REMARK  163  A    between atoms: _398  and  _401
REMARK  164  A    between atoms: _401  and  _402
REMARK  165  A    between atoms: _405  and  _407
REMARK  166  A    between atoms: _407  and  _408
REMARK  167  A    between atoms: _407  and  _410
REMARK  168  A    between atoms: _410  and  _411
REMARK  169  A    between atoms: _411  and  _412
REMARK  170  A    between atoms: _412  and  _413
REMARK  171  A    between atoms: _413  and  _414
REMARK  172  A    between atoms: _418  and  _420
REMARK  173  A    between atoms: _420  and  _421
REMARK  174  A    between atoms: _420  and  _423
REMARK  175  A    between atoms: _426  and  _428
REMARK  176  A    between atoms: _428  and  _429
REMARK  177  A    between atoms: _432  and  _434
REMARK  178  A    between atoms: _434  and  _435
REMARK  179  A    between atoms: _434  and  _437
REMARK  180  A    between atoms: _437  and  _438
REMARK  181  A    between atoms: _441  and  _443
REMARK  182  A    between atoms: _443  and  _444
REMARK  183  A    between atoms: _443  and  _446
REMARK  184  A    between atoms: _446  and  _447
REMARK  185  A    between atoms: _453  and  _455
REMARK  186  A    between atoms: _455  and  _456
REMARK  187  A    between atoms: _455  and  _458
REMARK  188  A    between atoms: _458  and  _459
REMARK  189  A    between atoms: _462  and  _464
REMARK  190  A    between atoms: _464  and  _465
REMARK  191  A    between atoms: _468  and  _470
REMARK  192  A    between atoms: _470  and  _471
REMARK  193  A    between atoms: _470  and  _473
REMARK  194  A    between atoms: _473  and  _474
REMARK  195  A    between atoms: _474  and  _475
REMARK  196  A    between atoms: _475  and  _476
REMARK  197  A    between atoms: _485  and  _487
REMARK  198  A    between atoms: _487  and  _488
REMARK  199  A    between atoms: _487  and  _490
REMARK  200  A    between atoms: _490  and  _491
REMARK  201  A    between atoms: _494  and  _496
REMARK  202  A    between atoms: _496  and  _497
REMARK  203  A    between atoms: _496  and  _499
REMARK  204  A    between atoms: _499  and  _500
REMARK  205  A    between atoms: _500  and  _501
REMARK  206  A    between atoms: _503  and  _505
REMARK  207  A    between atoms: _505  and  _506
REMARK  208  A    between atoms: _505  and  _508
REMARK  209  A    between atoms: _508  and  _509
REMARK  210  A    between atoms: _514  and  _515
REMARK  211  A    between atoms: _517  and  _519
REMARK  212  A    between atoms: _519  and  _520
REMARK  213  A    between atoms: _519  and  _522
REMARK  214  A    between atoms: _522  and  _523
REMARK  215  A    between atoms: _526  and  _528
REMARK  216  A    between atoms: _528  and  _529
REMARK  217  A    between atoms: _528  and  _531
REMARK  218  A    between atoms: _531  and  _532
REMARK  219  A    between atoms: _537  and  _538
REMARK                            x       y       z     vdW  Elec       q    Type
REMARK                         _______ _______ _______ _____ _____    ______ ____
ROOT
ATOM      1  O   HOH     1      17.823  78.719  -2.442  0.00  0.00    +0.000 OA
ENDROOT
TORSDOF 0
REMARK  Name = ../refined-set-2016/3zcl/3zcl_pocket.pdb
REMARK  219 active torsions:
REMARK  status: ('A' for Active; 'I' for Inactive)
REMARK    1  A    between atoms: _1  and  _3
REMARK    2  A    between atoms: _3  and  _4
REMARK    3  A    between atoms: _3  and  _6
REMARK    4  A    between atoms: _9  and  _11
REMARK    5  A    between atoms: _11  and  _12
REMARK    6  A    between atoms: _11  and  _14
REMARK    7  A    between atoms: _14  and  _15
REMARK    8  A    between atoms: _18  and  _20
REMARK    9  A    between atoms: _20  and  _21
REMARK   10  A    between atoms: _23  and  _25
REMARK   11  A    between atoms: _25  and  _26
REMARK   12  A    between atoms: _25  and  _28
REMARK   13  A    between atoms: _28  and  _29
REMARK   14  A    between atoms: _29  and  _30
REMARK   15  A    between atoms: _30  and  _31
REMARK   16  A    between atoms: _40  and  _42
REMARK   17  A    between atoms: _42  and  _43
REMARK   18  A    between atoms: _45  and  _47
REMARK   19  A    between atoms: _47  and  _48
REMARK   20  A    between atoms: _47  and  _50
REMARK   21  A    between atoms: _52  and  _54
REMARK   22  A    between atoms: _54  and  _55
REMARK   23  A    between atoms: _54  and  _57
REMARK   24  A    between atoms: _60  and  _62
REMARK   25  A    between atoms: _62  and  _63
REMARK   26  A    between atoms: _62  and  _65
REMARK   27  A    between atoms: _65  and  _66
REMARK   28  A    between atoms: _71  and  _72
REMARK   29  A    between atoms: _74  and  _76
REMARK   30  A    between atoms: _76  and  _77
REMARK   31  A    between atoms: _76  and  _79
REMARK   32  A    between atoms: _79  and  _80
REMARK   33  A    between atoms: _85  and  _87
REMARK   34  A    between atoms: _87  and  _88
REMARK   35  A    between atoms: _90  and  _92
REMARK   36  A    between atoms: _92  and  _93
REMARK   37  A    between atoms: _92  and  _95
REMARK   38  A    between atoms: _95  and  _96
REMARK   39  A    between atoms: _101  and  _103
REMARK   40  A    between atoms: _103  and  _104
REMARK   41  A    between atoms: _103  and  _106
REMARK   42  A    between atoms: _108  and  _110
REMARK   43  A    between atoms: _110  and  _111
REMARK   44  A    between atoms: _114  and  _116
REMARK   45  A    between atoms: _116  and  _117
REMARK   46  A    between atoms: _116  and  _119
REMARK   47  A    between atoms: _122  and  _124
REMARK   48  A    between atoms: _124  and  _125
REMARK   49  A    between atoms: _124  and  _127
REMARK   50  A    between atoms: _127  and  _128
REMARK   51  A    between atoms: _128  and  _129
REMARK   52  A    between atoms: _129  and  _130
REMARK   53  A    between atoms: _130  and  _131
REMARK   54  A    between atoms: _135  and  _137
REMARK   55  A    between atoms: _137  and  _138
REMARK   56  A    between atoms: _137  and  _140
REMARK   57  A    between atoms: _140  and  _141
REMARK   58  A    between atoms: _143  and  _145
REMARK   59  A    between atoms: _145  and  _146
REMARK   60  A    between atoms: _145  and  _148
REMARK   61  A    between atoms: _148  and  _149
REMARK   62  A    between atoms: _149  and  _150
REMARK   63  A    between atoms: _152  and  _154
REMARK   64  A    between atoms: _154  and  _155
REMARK   65  A    between atoms: _154  and  _157
REMARK   66  A    between atoms: _157  and  _158
REMARK   67  A    between atoms: _161  and  _163
REMARK   68  A    between atoms: _163  and  _164
REMARK   69  A    between atoms: _163  and  _166
REMARK   70  A    between atoms: _166  and  _167
REMARK   71  A    between atoms: _169  and  _171
REMARK   72  A    between atoms: _171  and  _172
REMARK   73  A    between atoms: _171  and  _174
REMARK   74  A    between atoms: _177  and  _179
REMARK   75  A    between atoms: _179  and  _180
REMARK   76  A    between atoms: _179  and  _182
REMARK   77  A    between atoms: _185  and  _187
REMARK   78  A    between atoms: _187  and  _188
REMARK   79  A    between atoms: _187  and  _190
REMARK   80  A    between atoms: _190  and  _191
REMARK   81  A    between atoms: _195  and  _196
REMARK   82  A    between atoms: _201  and  _203
REMARK   83  A    between atoms: _203  and  _204
REMARK   84  A    between atoms: _203  and  _206
REMARK   85  A    between atoms: _206  and  _207
REMARK   86  A    between atoms: _212  and  _213
REMARK   87  A    between atoms: _215  and  _217
REMARK   88  A    between atoms: _217  and  _218
REMARK   89  A    between atoms: _217  and  _220
REMARK   90  A    between atoms: _220  and  _221
REMARK   91  A    between atoms: _221  and  _222
REMARK   92  A    between atoms: _224  and  _226
REMARK   93  A    between atoms: _226  and  _227
REMARK   94  A    between atoms: _226  and  _229
REMARK   95  A    between atoms: _229  and  _230
REMARK   96  A    between atoms: _230  and  _231
REMARK   97  A    between atoms: _231  and  _232
REMARK   98  A    between atoms: _232  and  _233
REMARK   99  A    between atoms: _237  and  _239
REMARK  100  A    between atoms: _239  and  _240
REMARK  101  A    between atoms: _239  and  _242
REMARK  102  A    between atoms: _242  and  _243
REMARK  103  A    between atoms: _248  and  _250
REMARK  104  A    between atoms: _250  and  _251
REMARK  105  A    between atoms: _253  and  _255
REMARK  106  A    between atoms: _255  and  _256
REMARK  107  A    between atoms: _255  and  _258
REMARK  108  A    between atoms: _258  and  _259
REMARK  109  A    between atoms: _262  and  _264
REMARK  110  A    between atoms: _264  and  _265
REMARK  111  A    between atoms: _264  and  _267
REMARK  112  A    between atoms: _267  and  _268
REMARK  113  A    between atoms: _271  and  _273
REMARK  114  A    between atoms: _273  and  _274
REMARK  115  A    between atoms: _273  and  _276
REMARK  116  A    between atoms: _276  and  _277
REMARK  117  A    between atoms: _277  and  _278
REMARK  118  A    between atoms: _278  and  _279
REMARK  119  A    between atoms: _288  and  _290
REMARK  120  A    between atoms: _290  and  _291
REMARK  121  A    between atoms: _290  and  _293
REMARK  122  A    between atoms: _293  and  _294
REMARK  123  A    between atoms: _299  and  _301
REMARK  124  A    between atoms: _301  and  _302
REMARK  125  A    between atoms: _301  and  _304
REMARK  126  A    between atoms: _304  and  _305
REMARK  127  A    between atoms: _311  and  _313
REMARK  128  A    between atoms: _313  and  _314
REMARK  129  A    between atoms: _313  and  _316
REMARK  130  A    between atoms: _316  and  _317
REMARK  131  A    between atoms: _322  and  _324
REMARK  132  A    between atoms: _324  and  _325
REMARK  133  A    between atoms: _324  and  _327
REMARK  134  A    between atoms: _327  and  _328
REMARK  135  A    between atoms: _331  and  _333
REMARK  136  A    between atoms: _333  and  _334
REMARK  137  A    between atoms: _337  and  _339
REMARK  138  A    between atoms: _339  and  _340
REMARK  139  A    between atoms: _343  and  _345
REMARK  140  A    between atoms: _345  and  _346
REMARK  141  A    between atoms: _345  and  _348
REMARK  142  A    between atoms: _348  and  _349
REMARK  143  A    between atoms: _349  and  _350
REMARK  144  A    between atoms: _350  and  _351
REMARK  145  A    between atoms: _360  and  _362
REMARK  146  A    between atoms: _362  and  _363
REMARK  147  A    between atoms: _362  and  _365
REMARK  148  A    between atoms: _365  and  _366
REMARK  149  A    between atoms: _371  and  _373
REMARK  150  A    between atoms: _373  and  _374
REMARK  151  A    between atoms: _373  and  _376
REMARK  152  A    between atoms: _378  and  _380
REMARK  153  A    between atoms: _380  and  _381
REMARK  154  A    between atoms: _380  and  _383
REMARK  155  A    between atoms: _383  and  _384
REMARK  156  A    between atoms: _384  and  _385
REMARK  157  A    between atoms: _387  and  _389
REMARK  158  A    between atoms: _389  and  _390
REMARK  159  A    between atoms: _389  and  _392
REMARK  160  A    between atoms: _392  and  _393
REMARK  161  A    between atoms: _396  and  _398
REMARK  162  A    between atoms: _398  and  _399
REMARK  163  A    between atoms: _398  and  _401
REMARK  164  A    between atoms: _401  and  _402
REMARK  165  A    between atoms: _405  and  _407
REMARK  166  A    between atoms: _407  and  _408
REMARK  167  A    between atoms: _407  and  _410
REMARK  168  A    between atoms: _410  and  _411
REMARK  169  A    between atoms: _411  and  _412
REMARK  170  A    between atoms: _412  and  _413
REMARK  171  A    between atoms: _413  and  _414
REMARK  172  A    between atoms: _418  and  _420
REMARK  173  A    between atoms: _420  and  _421
REMARK  174  A    between atoms: _420  and  _423
REMARK  175  A    between atoms: _426  and  _428
REMARK  176  A    between atoms: _428  and  _429
REMARK  177  A    between atoms: _432  and  _434
REMARK  178  A    between atoms: _434  and  _435
REMARK  179  A    between atoms: _434  and  _437
REMARK  180  A    between atoms: _437  and  _438
REMARK  181  A    between atoms: _441  and  _443
REMARK  182  A    between atoms: _443  and  _444
REMARK  183  A    between atoms: _443  and  _446
REMARK  184  A    between atoms: _446  and  _447
REMARK  185  A    between atoms: _453  and  _455
REMARK  186  A    between atoms: _455  and  _456
REMARK  187  A    between atoms: _455  and  _458
REMARK  188  A    between atoms: _458  and  _459
REMARK  189  A    between atoms: _462  and  _464
REMARK  190  A    between atoms: _464  and  _465
REMARK  191  A    between atoms: _468  and  _470
REMARK  192  A    between atoms: _470  and  _471
REMARK  193  A    between atoms: _470  and  _473
REMARK  194  A    between atoms: _473  and  _474
REMARK  195  A    between atoms: _474  and  _475
REMARK  196  A    between atoms: _475  and  _476
REMARK  197  A    between atoms: _485  and  _487
REMARK  198  A    between atoms: _487  and  _488
REMARK  199  A    between atoms: _487  and  _490
REMARK  200  A    between atoms: _490  and  _491
REMARK  201  A    between atoms: _494  and  _496
REMARK  202  A    between atoms: _496  and  _497
REMARK  203  A    between atoms: _496  and  _499
REMARK  204  A    between atoms: _499  and  _500
REMARK  205  A    between atoms: _500  and  _501
REMARK  206  A    between atoms: _503  and  _505
REMARK  207  A    between atoms: _505  and  _506
REMARK  208  A    between atoms: _505  and  _508
REMARK  209  A    between atoms: _508  and  _509
REMARK  210  A    between atoms: _514  and  _515
REMARK  211  A    between atoms: _517  and  _519
REMARK  212  A    between atoms: _519  and  _520
REMARK  213  A    between atoms: _519  and  _522
REMARK  214  A    between atoms: _522  and  _523
REMARK  215  A    between atoms: _526  and  _528
REMARK  216  A    between atoms: _528  and  _529
REMARK  217  A    between atoms: _528  and  _531
REMARK  218  A    between atoms: _531  and  _532
REMARK  219  A    between atoms: _537  and  _538
REMARK                            x       y       z     vdW  Elec       q    Type
REMARK                         _______ _______ _______ _____ _____    ______ ____
ROOT
ATOM      1  O   HOH     1      20.440  81.911  -2.299  0.00  0.00    +0.000 OA
ENDROOT
TORSDOF 0
REMARK  Name = ../refined-set-2016/3zcl/3zcl_pocket.pdb
REMARK  219 active torsions:
REMARK  status: ('A' for Active; 'I' for Inactive)
REMARK    1  A    between atoms: _1  and  _3
REMARK    2  A    between atoms: _3  and  _4
REMARK    3  A    between atoms: _3  and  _6
REMARK    4  A    between atoms: _9  and  _11
REMARK    5  A    between atoms: _11  and  _12
REMARK    6  A    between atoms: _11  and  _14
REMARK    7  A    between atoms: _14  and  _15
REMARK    8  A    between atoms: _18  and  _20
REMARK    9  A    between atoms: _20  and  _21
REMARK   10  A    between atoms: _23  and  _25
REMARK   11  A    between atoms: _25  and  _26
REMARK   12  A    between atoms: _25  and  _28
REMARK   13  A    between atoms: _28  and  _29
REMARK   14  A    between atoms: _29  and  _30
REMARK   15  A    between atoms: _30  and  _31
REMARK   16  A    between atoms: _40  and  _42
REMARK   17  A    between atoms: _42  and  _43
REMARK   18  A    between atoms: _45  and  _47
REMARK   19  A    between atoms: _47  and  _48
REMARK   20  A    between atoms: _47  and  _50
REMARK   21  A    between atoms: _52  and  _54
REMARK   22  A    between atoms: _54  and  _55
REMARK   23  A    between atoms: _54  and  _57
REMARK   24  A    between atoms: _60  and  _62
REMARK   25  A    between atoms: _62  and  _63
REMARK   26  A    between atoms: _62  and  _65
REMARK   27  A    between atoms: _65  and  _66
REMARK   28  A    between atoms: _71  and  _72
REMARK   29  A    between atoms: _74  and  _76
REMARK   30  A    between atoms: _76  and  _77
REMARK   31  A    between atoms: _76  and  _79
REMARK   32  A    between atoms: _79  and  _80
REMARK   33  A    between atoms: _85  and  _87
REMARK   34  A    between atoms: _87  and  _88
REMARK   35  A    between atoms: _90  and  _92
REMARK   36  A    between atoms: _92  and  _93
REMARK   37  A    between atoms: _92  and  _95
REMARK   38  A    between atoms: _95  and  _96
REMARK   39  A    between atoms: _101  and  _103
REMARK   40  A    between atoms: _103  and  _104
REMARK   41  A    between atoms: _103  and  _106
REMARK   42  A    between atoms: _108  and  _110
REMARK   43  A    between atoms: _110  and  _111
REMARK   44  A    between atoms: _114  and  _116
REMARK   45  A    between atoms: _116  and  _117
REMARK   46  A    between atoms: _116  and  _119
REMARK   47  A    between atoms: _122  and  _124
REMARK   48  A    between atoms: _124  and  _125
REMARK   49  A    between atoms: _124  and  _127
REMARK   50  A    between atoms: _127  and  _128
REMARK   51  A    between atoms: _128  and  _129
REMARK   52  A    between atoms: _129  and  _130
REMARK   53  A    between atoms: _130  and  _131
REMARK   54  A    between atoms: _135  and  _137
REMARK   55  A    between atoms: _137  and  _138
REMARK   56  A    between atoms: _137  and  _140
REMARK   57  A    between atoms: _140  and  _141
REMARK   58  A    between atoms: _143  and  _145
REMARK   59  A    between atoms: _145  and  _146
REMARK   60  A    between atoms: _145  and  _148
REMARK   61  A    between atoms: _148  and  _149
REMARK   62  A    between atoms: _149  and  _150
REMARK   63  A    between atoms: _152  and  _154
REMARK   64  A    between atoms: _154  and  _155
REMARK   65  A    between atoms: _154  and  _157
REMARK   66  A    between atoms: _157  and  _158
REMARK   67  A    between atoms: _161  and  _163
REMARK   68  A    between atoms: _163  and  _164
REMARK   69  A    between atoms: _163  and  _166
REMARK   70  A    between atoms: _166  and  _167
REMARK   71  A    between atoms: _169  and  _171
REMARK   72  A    between atoms: _171  and  _172
REMARK   73  A    between atoms: _171  and  _174
REMARK   74  A    between atoms: _177  and  _179
REMARK   75  A    between atoms: _179  and  _180
REMARK   76  A    between atoms: _179  and  _182
REMARK   77  A    between atoms: _185  and  _187
REMARK   78  A    between atoms: _187  and  _188
REMARK   79  A    between atoms: _187  and  _190
REMARK   80  A    between atoms: _190  and  _191
REMARK   81  A    between atoms: _195  and  _196
REMARK   82  A    between atoms: _201  and  _203
REMARK   83  A    between atoms: _203  and  _204
REMARK   84  A    between atoms: _203  and  _206
REMARK   85  A    between atoms: _206  and  _207
REMARK   86  A    between atoms: _212  and  _213
REMARK   87  A    between atoms: _215  and  _217
REMARK   88  A    between atoms: _217  and  _218
REMARK   89  A    between atoms: _217  and  _220
REMARK   90  A    between atoms: _220  and  _221
REMARK   91  A    between atoms: _221  and  _222
REMARK   92  A    between atoms: _224  and  _226
REMARK   93  A    between atoms: _226  and  _227
REMARK   94  A    between atoms: _226  and  _229
REMARK   95  A    between atoms: _229  and  _230
REMARK   96  A    between atoms: _230  and  _231
REMARK   97  A    between atoms: _231  and  _232
REMARK   98  A    between atoms: _232  and  _233
REMARK   99  A    between atoms: _237  and  _239
REMARK  100  A    between atoms: _239  and  _240
REMARK  101  A    between atoms: _239  and  _242
REMARK  102  A    between atoms: _242  and  _243
REMARK  103  A    between atoms: _248  and  _250
REMARK  104  A    between atoms: _250  and  _251
REMARK  105  A    between atoms: _253  and  _255
REMARK  106  A    between atoms: _255  and  _256
REMARK  107  A    between atoms: _255  and  _258
REMARK  108  A    between atoms: _258  and  _259
REMARK  109  A    between atoms: _262  and  _264
REMARK  110  A    between atoms: _264  and  _265
REMARK  111  A    between atoms: _264  and  _267
REMARK  112  A    between atoms: _267  and  _268
REMARK  113  A    between atoms: _271  and  _273
REMARK  114  A    between atoms: _273  and  _274
REMARK  115  A    between atoms: _273  and  _276
REMARK  116  A    between atoms: _276  and  _277
REMARK  117  A    between atoms: _277  and  _278
REMARK  118  A    between atoms: _278  and  _279
REMARK  119  A    between atoms: _288  and  _290
REMARK  120  A    between atoms: _290  and  _291
REMARK  121  A    between atoms: _290  and  _293
REMARK  122  A    between atoms: _293  and  _294
REMARK  123  A    between atoms: _299  and  _301
REMARK  124  A    between atoms: _301  and  _302
REMARK  125  A    between atoms: _301  and  _304
REMARK  126  A    between atoms: _304  and  _305
REMARK  127  A    between atoms: _311  and  _313
REMARK  128  A    between atoms: _313  and  _314
REMARK  129  A    between atoms: _313  and  _316
REMARK  130  A    between atoms: _316  and  _317
REMARK  131  A    between atoms: _322  and  _324
REMARK  132  A    between atoms: _324  and  _325
REMARK  133  A    between atoms: _324  and  _327
REMARK  134  A    between atoms: _327  and  _328
REMARK  135  A    between atoms: _331  and  _333
REMARK  136  A    between atoms: _333  and  _334
REMARK  137  A    between atoms: _337  and  _339
REMARK  138  A    between atoms: _339  and  _340
REMARK  139  A    between atoms: _343  and  _345
REMARK  140  A    between atoms: _345  and  _346
REMARK  141  A    between atoms: _345  and  _348
REMARK  142  A    between atoms: _348  and  _349
REMARK  143  A    between atoms: _349  and  _350
REMARK  144  A    between atoms: _350  and  _351
REMARK  145  A    between atoms: _360  and  _362
REMARK  146  A    between atoms: _362  and  _363
REMARK  147  A    between atoms: _362  and  _365
REMARK  148  A    between atoms: _365  and  _366
REMARK  149  A    between atoms: _371  and  _373
REMARK  150  A    between atoms: _373  and  _374
REMARK  151  A    between atoms: _373  and  _376
REMARK  152  A    between atoms: _378  and  _380
REMARK  153  A    between atoms: _380  and  _381
REMARK  154  A    between atoms: _380  and  _383
REMARK  155  A    between atoms: _383  and  _384
REMARK  156  A    between atoms: _384  and  _385
REMARK  157  A    between atoms: _387  and  _389
REMARK  158  A    between atoms: _389  and  _390
REMARK  159  A    between atoms: _389  and  _392
REMARK  160  A    between atoms: _392  and  _393
REMARK  161  A    between atoms: _396  and  _398
REMARK  162  A    between atoms: _398  and  _399
REMARK  163  A    between atoms: _398  and  _401
REMARK  164  A    between atoms: _401  and  _402
REMARK  165  A    between atoms: _405  and  _407
REMARK  166  A    between atoms: _407  and  _408
REMARK  167  A    between atoms: _407  and  _410
REMARK  168  A    between atoms: _410  and  _411
REMARK  169  A    between atoms: _411  and  _412
REMARK  170  A    between atoms: _412  and  _413
REMARK  171  A    between atoms: _413  and  _414
REMARK  172  A    between atoms: _418  and  _420
REMARK  173  A    between atoms: _420  and  _421
REMARK  174  A    between atoms: _420  and  _423
REMARK  175  A    between atoms: _426  and  _428
REMARK  176  A    between atoms: _428  and  _429
REMARK  177  A    between atoms: _432  and  _434
REMARK  178  A    between atoms: _434  and  _435
REMARK  179  A    between atoms: _434  and  _437
REMARK  180  A    between atoms: _437  and  _438
REMARK  181  A    between atoms: _441  and  _443
REMARK  182  A    between atoms: _443  and  _444
REMARK  183  A    between atoms: _443  and  _446
REMARK  184  A    between atoms: _446  and  _447
REMARK  185  A    between atoms: _453  and  _455
REMARK  186  A    between atoms: _455  and  _456
REMARK  187  A    between atoms: _455  and  _458
REMARK  188  A    between atoms: _458  and  _459
REMARK  189  A    between atoms: _462  and  _464
REMARK  190  A    between atoms: _464  and  _465
REMARK  191  A    between atoms: _468  and  _470
REMARK  192  A    between atoms: _470  and  _471
REMARK  193  A    between atoms: _470  and  _473
REMARK  194  A    between atoms: _473  and  _474
REMARK  195  A    between atoms: _474  and  _475
REMARK  196  A    between atoms: _475  and  _476
REMARK  197  A    between atoms: _485  and  _487
REMARK  198  A    between atoms: _487  and  _488
REMARK  199  A    between atoms: _487  and  _490
REMARK  200  A    between atoms: _490  and  _491
REMARK  201  A    between atoms: _494  and  _496
REMARK  202  A    between atoms: _496  and  _497
REMARK  203  A    between atoms: _496  and  _499
REMARK  204  A    between atoms: _499  and  _500
REMARK  205  A    between atoms: _500  and  _501
REMARK  206  A    between atoms: _503  and  _505
REMARK  207  A    between atoms: _505  and  _506
REMARK  208  A    between atoms: _505  and  _508
REMARK  209  A    between atoms: _508  and  _509
REMARK  210  A    between atoms: _514  and  _515
REMARK  211  A    between atoms: _517  and  _519
REMARK  212  A    between atoms: _519  and  _520
REMARK  213  A    between atoms: _519  and  _522
REMARK  214  A    between atoms: _522  and  _523
REMARK  215  A    between atoms: _526  and  _528
REMARK  216  A    between atoms: _528  and  _529
REMARK  217  A    between atoms: _528  and  _531
REMARK  218  A    between atoms: _531  and  _532
REMARK  219  A    between atoms: _537  and  _538
REMARK                            x       y       z     vdW  Elec       q    Type
REMARK                         _______ _______ _______ _____ _____    ______ ____
ROOT
ATOM      1  O   HOH     1      12.673  79.948   4.435  0.00  0.00    +0.000 OA
ENDROOT
TORSDOF 0
