REMARK  Name = ../refined-set-2016/4dhl/4dhl_pocket.pdb
REMARK  117 active torsions:
REMARK  status: ('A' for Active; 'I' for Inactive)
REMARK    1  A    between atoms: _1  and  _3
REMARK    2  A    between atoms: _3  and  _4
REMARK    3  A    between atoms: _3  and  _6
REMARK    4  A    between atoms: _6  and  _7
REMARK    5  A    between atoms: _7  and  _9
REMARK    6  A    between atoms: _9  and  FE_280
REMARK    7  A    between atoms: _10  and  _12
REMARK    8  A    between atoms: _12  and  _13
REMARK    9  A    between atoms: _15  and  _17
REMARK   10  A    between atoms: _17  and  _18
REMARK   11  A    between atoms: _17  and  _20
REMARK   12  A    between atoms: _20  and  _21
REMARK   13  A    between atoms: _21  and  _23
REMARK   14  A    between atoms: _23  and  FE_280
REMARK   15  A    between atoms: _24  and  _26
REMARK   16  A    between atoms: _26  and  _27
REMARK   17  A    between atoms: _26  and  _29
REMARK   18  A    between atoms: _29  and  _30
REMARK   19  A    between atoms: _35  and  _36
REMARK   20  A    between atoms: _38  and  _40
REMARK   21  A    between atoms: _40  and  _41
REMARK   22  A    between atoms: _40  and  _43
REMARK   23  A    between atoms: _43  and  _44
REMARK   24  A    between atoms: _47  and  _49
REMARK   25  A    between atoms: _49  and  _50
REMARK   26  A    between atoms: _49  and  _52
REMARK   27  A    between atoms: _52  and  _53
REMARK   28  A    between atoms: _53  and  _54
REMARK   29  A    between atoms: _54  and  _55
REMARK   30  A    between atoms: _64  and  _66
REMARK   31  A    between atoms: _66  and  _67
REMARK   32  A    between atoms: _69  and  _71
REMARK   33  A    between atoms: _71  and  _72
REMARK   34  A    between atoms: _71  and  _74
REMARK   35  A    between atoms: _74  and  _75
REMARK   36  A    between atoms: _75  and  _76
REMARK   37  A    between atoms: _75  and  _77
REMARK   38  A    between atoms: _76  and  ZN_279
REMARK   39  A    between atoms: _80  and  _82
REMARK   40  A    between atoms: _82  and  _83
REMARK   41  A    between atoms: _82  and  _85
REMARK   42  A    between atoms: _85  and  _86
REMARK   43  A    between atoms: _91  and  _93
REMARK   44  A    between atoms: _93  and  _94
REMARK   45  A    between atoms: _93  and  _96
REMARK   46  A    between atoms: _96  and  _97
REMARK   47  A    between atoms: _97  and  _98
REMARK   48  A    between atoms: _101  and  _103
REMARK   49  A    between atoms: _103  and  _104
REMARK   50  A    between atoms: _103  and  _106
REMARK   51  A    between atoms: _106  and  _107
REMARK   52  A    between atoms: _112  and  _113
REMARK   53  A    between atoms: _115  and  _117
REMARK   54  A    between atoms: _117  and  _118
REMARK   55  A    between atoms: _117  and  _120
REMARK   56  A    between atoms: _120  and  _121
REMARK   57  A    between atoms: _125  and  ZN_279
REMARK   58  A    between atoms: _126  and  _128
REMARK   59  A    between atoms: _128  and  _129
REMARK   60  A    between atoms: _128  and  _131
REMARK   61  A    between atoms: _131  and  _132
REMARK   62  A    between atoms: _134  and  _136
REMARK   63  A    between atoms: _136  and  _137
REMARK   64  A    between atoms: _136  and  _139
REMARK   65  A    between atoms: _139  and  _140
REMARK   66  A    between atoms: _145  and  _147
REMARK   67  A    between atoms: _147  and  _148
REMARK   68  A    between atoms: _147  and  _150
REMARK   69  A    between atoms: _150  and  _151
REMARK   70  A    between atoms: _156  and  _158
REMARK   71  A    between atoms: _158  and  _159
REMARK   72  A    between atoms: _158  and  _161
REMARK   73  A    between atoms: _161  and  _162
REMARK   74  A    between atoms: _162  and  _163
REMARK   75  A    between atoms: _166  and  _168
REMARK   76  A    between atoms: _168  and  _169
REMARK   77  A    between atoms: _171  and  _173
REMARK   78  A    between atoms: _173  and  _174
REMARK   79  A    between atoms: _173  and  _176
REMARK   80  A    between atoms: _176  and  _177
REMARK   81  A    between atoms: _178  and  ZN_279
REMARK   82  A    between atoms: _182  and  _184
REMARK   83  A    between atoms: _184  and  _185
REMARK   84  A    between atoms: _184  and  _187
REMARK   85  A    between atoms: _190  and  _192
REMARK   86  A    between atoms: _192  and  _193
REMARK   87  A    between atoms: _192  and  _195
REMARK   88  A    between atoms: _195  and  _196
REMARK   89  A    between atoms: _201  and  _203
REMARK   90  A    between atoms: _203  and  _204
REMARK   91  A    between atoms: _206  and  _208
REMARK   92  A    between atoms: _208  and  _209
REMARK   93  A    between atoms: _208  and  _211
REMARK   94  A    between atoms: _211  and  _212
REMARK   95  A    between atoms: _217  and  _219
REMARK   96  A    between atoms: _219  and  _220
REMARK   97  A    between atoms: _219  and  _222
REMARK   98  A    between atoms: _222  and  _223
REMARK   99  A    between atoms: _228  and  _229
REMARK  100  A    between atoms: _231  and  _233
REMARK  101  A    between atoms: _233  and  _234
REMARK  102  A    between atoms: _233  and  _236
REMARK  103  A    between atoms: _239  and  _241
REMARK  104  A    between atoms: _241  and  _242
REMARK  105  A    between atoms: _241  and  _244
REMARK  106  A    between atoms: _244  and  _245
REMARK  107  A    between atoms: _248  and  _250
REMARK  108  A    between atoms: _250  and  _251
REMARK  109  A    between atoms: _250  and  _253
REMARK  110  A    between atoms: _253  and  _254
REMARK  111  A    between atoms: _254  and  _255
REMARK  112  A    between atoms: _255  and  _256
REMARK  113  A    between atoms: _265  and  _267
REMARK  114  A    between atoms: _267  and  _268
REMARK  115  A    between atoms: _267  and  _270
REMARK  116  A    between atoms: _270  and  _271
REMARK  117  A    between atoms: _276  and  _277
REMARK                            x       y       z     vdW  Elec       q    Type
REMARK                         _______ _______ _______ _____ _____    ______ ____
ROOT
ATOM      1  C   UNK A   2     -66.293  31.461 -36.738  0.00  0.00    +0.000 C 
ATOM      2  O   UNK A   2     -65.133  31.787 -37.083  0.00  0.00    +0.000 OA
ENDROOT
BRANCH   1   3
ATOM      3  O   UNK A   2     -67.176  31.153 -37.554  0.00  0.00    +0.000 OA
BRANCH   3   4
ATOM      4 FE   UNK A   1     -69.416  30.967 -37.482  0.00  0.00    +0.000 Fe
BRANCH   4   5
ATOM      5  O   UNK A   1     -68.972  29.011 -36.667  0.00  0.00    +0.000 OA
BRANCH   5   6
ATOM      6  C   UNK A   1     -69.289  28.540 -35.564  0.00  0.00    +0.000 C 
ATOM      7  O   UNK A   1     -68.998  27.368 -35.277  0.00  0.00    +0.000 OA
BRANCH   6   8
ATOM      8  C   UNK A   1     -70.102  29.395 -34.569  0.00  0.00    +0.000 C 
BRANCH   8   9
ATOM      9  C   UNK A   1     -69.322  29.743 -33.289  0.00  0.00    +0.000 C 
BRANCH   9  10
ATOM     10  N   UNK A   1     -68.734  28.540 -32.726  0.00  0.00    +0.000 NA
ATOM     11  H   UNK A   1     -67.701  28.423 -32.754  0.00  0.00    +0.000 HD
ENDBRANCH   9  10
BRANCH   9  12
ATOM     12  C   UNK A   1     -70.231  30.409 -32.238  0.00  0.00    +0.000 C 
ATOM     13  O   UNK A   1     -71.404  30.649 -32.467  0.00  0.00    +0.000 OA
ENDBRANCH   9  12
ENDBRANCH   8   9
ENDBRANCH   6   8
ENDBRANCH   5   6
ENDBRANCH   4   5
ENDBRANCH   3   4
ENDBRANCH   1   3
BRANCH   1  14
ATOM     14  C   UNK A   2     -66.636  31.433 -35.267  0.00  0.00    +0.000 C 
BRANCH  14  15
ATOM     15  C   UNK A   2     -65.398  31.596 -34.372  0.00  0.00    +0.000 C 
BRANCH  15  16
ATOM     16  N   UNK A   2     -64.529  30.420 -34.375  0.00  0.00    +0.000 N 
ATOM     17  C   UNK A   1     -64.875  29.225 -33.892  0.00  0.00    +0.000 C 
ATOM     18  O   UNK A   1     -66.028  28.903 -33.619  0.00  0.00    +0.000 OA
ATOM     19  H   UNK A   2     -63.577  30.522 -34.781  0.00  0.00    +0.000 HD
BRANCH  17  20
ATOM     20  C   UNK A   1     -63.736  28.236 -33.745  0.00  0.00    +0.000 C 
BRANCH  20  21
ATOM     21  N   UNK A   1     -64.037  27.025 -33.001  0.00  0.00    +0.000 NA
ATOM     22  H   UNK A   1     -64.131  27.068 -31.966  0.00  0.00    +0.000 HD
ENDBRANCH  20  21
ENDBRANCH  17  20
ENDBRANCH  15  16
BRANCH  15  23
ATOM     23  C   UNK A   2     -65.788  32.022 -32.963  0.00  0.00    +0.000 C 
ATOM     24  O   UNK A   2     -66.829  31.623 -32.429  0.00  0.00    +0.000 OA
ENDBRANCH  15  23
ENDBRANCH  14  15
ENDBRANCH   1  14
TORSDOF 14
REMARK  Name = ../refined-set-2016/4dhl/4dhl_pocket.pdb
REMARK  117 active torsions:
REMARK  status: ('A' for Active; 'I' for Inactive)
REMARK    1  A    between atoms: _1  and  _3
REMARK    2  A    between atoms: _3  and  _4
REMARK    3  A    between atoms: _3  and  _6
REMARK    4  A    between atoms: _6  and  _7
REMARK    5  A    between atoms: _7  and  _9
REMARK    6  A    between atoms: _9  and  FE_280
REMARK    7  A    between atoms: _10  and  _12
REMARK    8  A    between atoms: _12  and  _13
REMARK    9  A    between atoms: _15  and  _17
REMARK   10  A    between atoms: _17  and  _18
REMARK   11  A    between atoms: _17  and  _20
REMARK   12  A    between atoms: _20  and  _21
REMARK   13  A    between atoms: _21  and  _23
REMARK   14  A    between atoms: _23  and  FE_280
REMARK   15  A    between atoms: _24  and  _26
REMARK   16  A    between atoms: _26  and  _27
REMARK   17  A    between atoms: _26  and  _29
REMARK   18  A    between atoms: _29  and  _30
REMARK   19  A    between atoms: _35  and  _36
REMARK   20  A    between atoms: _38  and  _40
REMARK   21  A    between atoms: _40  and  _41
REMARK   22  A    between atoms: _40  and  _43
REMARK   23  A    between atoms: _43  and  _44
REMARK   24  A    between atoms: _47  and  _49
REMARK   25  A    between atoms: _49  and  _50
REMARK   26  A    between atoms: _49  and  _52
REMARK   27  A    between atoms: _52  and  _53
REMARK   28  A    between atoms: _53  and  _54
REMARK   29  A    between atoms: _54  and  _55
REMARK   30  A    between atoms: _64  and  _66
REMARK   31  A    between atoms: _66  and  _67
REMARK   32  A    between atoms: _69  and  _71
REMARK   33  A    between atoms: _71  and  _72
REMARK   34  A    between atoms: _71  and  _74
REMARK   35  A    between atoms: _74  and  _75
REMARK   36  A    between atoms: _75  and  _76
REMARK   37  A    between atoms: _75  and  _77
REMARK   38  A    between atoms: _76  and  ZN_279
REMARK   39  A    between atoms: _80  and  _82
REMARK   40  A    between atoms: _82  and  _83
REMARK   41  A    between atoms: _82  and  _85
REMARK   42  A    between atoms: _85  and  _86
REMARK   43  A    between atoms: _91  and  _93
REMARK   44  A    between atoms: _93  and  _94
REMARK   45  A    between atoms: _93  and  _96
REMARK   46  A    between atoms: _96  and  _97
REMARK   47  A    between atoms: _97  and  _98
REMARK   48  A    between atoms: _101  and  _103
REMARK   49  A    between atoms: _103  and  _104
REMARK   50  A    between atoms: _103  and  _106
REMARK   51  A    between atoms: _106  and  _107
REMARK   52  A    between atoms: _112  and  _113
REMARK   53  A    between atoms: _115  and  _117
REMARK   54  A    between atoms: _117  and  _118
REMARK   55  A    between atoms: _117  and  _120
REMARK   56  A    between atoms: _120  and  _121
REMARK   57  A    between atoms: _125  and  ZN_279
REMARK   58  A    between atoms: _126  and  _128
REMARK   59  A    between atoms: _128  and  _129
REMARK   60  A    between atoms: _128  and  _131
REMARK   61  A    between atoms: _131  and  _132
REMARK   62  A    between atoms: _134  and  _136
REMARK   63  A    between atoms: _136  and  _137
REMARK   64  A    between atoms: _136  and  _139
REMARK   65  A    between atoms: _139  and  _140
REMARK   66  A    between atoms: _145  and  _147
REMARK   67  A    between atoms: _147  and  _148
REMARK   68  A    between atoms: _147  and  _150
REMARK   69  A    between atoms: _150  and  _151
REMARK   70  A    between atoms: _156  and  _158
REMARK   71  A    between atoms: _158  and  _159
REMARK   72  A    between atoms: _158  and  _161
REMARK   73  A    between atoms: _161  and  _162
REMARK   74  A    between atoms: _162  and  _163
REMARK   75  A    between atoms: _166  and  _168
REMARK   76  A    between atoms: _168  and  _169
REMARK   77  A    between atoms: _171  and  _173
REMARK   78  A    between atoms: _173  and  _174
REMARK   79  A    between atoms: _173  and  _176
REMARK   80  A    between atoms: _176  and  _177
REMARK   81  A    between atoms: _178  and  ZN_279
REMARK   82  A    between atoms: _182  and  _184
REMARK   83  A    between atoms: _184  and  _185
REMARK   84  A    between atoms: _184  and  _187
REMARK   85  A    between atoms: _190  and  _192
REMARK   86  A    between atoms: _192  and  _193
REMARK   87  A    between atoms: _192  and  _195
REMARK   88  A    between atoms: _195  and  _196
REMARK   89  A    between atoms: _201  and  _203
REMARK   90  A    between atoms: _203  and  _204
REMARK   91  A    between atoms: _206  and  _208
REMARK   92  A    between atoms: _208  and  _209
REMARK   93  A    between atoms: _208  and  _211
REMARK   94  A    between atoms: _211  and  _212
REMARK   95  A    between atoms: _217  and  _219
REMARK   96  A    between atoms: _219  and  _220
REMARK   97  A    between atoms: _219  and  _222
REMARK   98  A    between atoms: _222  and  _223
REMARK   99  A    between atoms: _228  and  _229
REMARK  100  A    between atoms: _231  and  _233
REMARK  101  A    between atoms: _233  and  _234
REMARK  102  A    between atoms: _233  and  _236
REMARK  103  A    between atoms: _239  and  _241
REMARK  104  A    between atoms: _241  and  _242
REMARK  105  A    between atoms: _241  and  _244
REMARK  106  A    between atoms: _244  and  _245
REMARK  107  A    between atoms: _248  and  _250
REMARK  108  A    between atoms: _250  and  _251
REMARK  109  A    between atoms: _250  and  _253
REMARK  110  A    between atoms: _253  and  _254
REMARK  111  A    between atoms: _254  and  _255
REMARK  112  A    between atoms: _255  and  _256
REMARK  113  A    between atoms: _265  and  _267
REMARK  114  A    between atoms: _267  and  _268
REMARK  115  A    between atoms: _267  and  _270
REMARK  116  A    between atoms: _270  and  _271
REMARK  117  A    between atoms: _276  and  _277
REMARK                            x       y       z     vdW  Elec       q    Type
REMARK                         _______ _______ _______ _____ _____    ______ ____
ROOT
ATOM      1  CG  TYR A   1     -69.075  36.138 -34.704  0.00  0.00    -0.020 A 
ATOM      2  CD2 TYR A   1     -68.887  35.100 -33.794  0.00  0.00    -0.001 A 
ATOM      3  CE2 TYR A   1     -69.137  33.778 -34.155  0.00  0.00    +0.036 A 
ATOM      4  CZ  TYR A   1     -69.578  33.493 -35.437  0.00  0.00    +0.134 A 
ATOM      5  CE1 TYR A   1     -69.771  34.501 -36.350  0.00  0.00    +0.036 A 
ATOM      6  CD1 TYR A   1     -69.520  35.817 -35.986  0.00  0.00    -0.001 A 
ENDROOT
BRANCH   4   7
ATOM      7  OH  TYR A   1     -69.829  32.195 -35.808  0.00  0.00    -0.506 OA
ATOM      8  HH  TYR A   1     -69.246  31.952 -36.570  0.00  0.00    +0.292 HD
ENDBRANCH   4   7
BRANCH   1   9
ATOM      9  CB  TYR A   1     -68.809  37.562 -34.319  0.00  0.00    +0.051 C 
BRANCH   9  10
ATOM     10  CA  TYR A   1     -67.328  37.928 -34.280  0.00  0.00    +0.137 C 
BRANCH  10  11
ATOM     11  N   TYR A   1     -66.670  37.296 -33.140  0.00  0.00    -0.239 NA
ATOM     12  H   TYR A   1     -65.863  36.661 -33.306  0.00  0.00    +0.142 HD
ENDBRANCH  10  11
BRANCH  10  13
ATOM     13  C   TYR A   1     -67.185  39.445 -34.215  0.00  0.00    +0.224 C 
ATOM     14  O   TYR A   1     -68.007  40.186 -34.761  0.00  0.00    -0.287 OA
ENDBRANCH  10  13
ENDBRANCH   9  10
ENDBRANCH   1   9
TORSDOF 5
REMARK  Name = ../refined-set-2016/4dhl/4dhl_pocket.pdb
REMARK  117 active torsions:
REMARK  status: ('A' for Active; 'I' for Inactive)
REMARK    1  A    between atoms: _1  and  _3
REMARK    2  A    between atoms: _3  and  _4
REMARK    3  A    between atoms: _3  and  _6
REMARK    4  A    between atoms: _6  and  _7
REMARK    5  A    between atoms: _7  and  _9
REMARK    6  A    between atoms: _9  and  FE_280
REMARK    7  A    between atoms: _10  and  _12
REMARK    8  A    between atoms: _12  and  _13
REMARK    9  A    between atoms: _15  and  _17
REMARK   10  A    between atoms: _17  and  _18
REMARK   11  A    between atoms: _17  and  _20
REMARK   12  A    between atoms: _20  and  _21
REMARK   13  A    between atoms: _21  and  _23
REMARK   14  A    between atoms: _23  and  FE_280
REMARK   15  A    between atoms: _24  and  _26
REMARK   16  A    between atoms: _26  and  _27
REMARK   17  A    between atoms: _26  and  _29
REMARK   18  A    between atoms: _29  and  _30
REMARK   19  A    between atoms: _35  and  _36
REMARK   20  A    between atoms: _38  and  _40
REMARK   21  A    between atoms: _40  and  _41
REMARK   22  A    between atoms: _40  and  _43
REMARK   23  A    between atoms: _43  and  _44
REMARK   24  A    between atoms: _47  and  _49
REMARK   25  A    between atoms: _49  and  _50
REMARK   26  A    between atoms: _49  and  _52
REMARK   27  A    between atoms: _52  and  _53
REMARK   28  A    between atoms: _53  and  _54
REMARK   29  A    between atoms: _54  and  _55
REMARK   30  A    between atoms: _64  and  _66
REMARK   31  A    between atoms: _66  and  _67
REMARK   32  A    between atoms: _69  and  _71
REMARK   33  A    between atoms: _71  and  _72
REMARK   34  A    between atoms: _71  and  _74
REMARK   35  A    between atoms: _74  and  _75
REMARK   36  A    between atoms: _75  and  _76
REMARK   37  A    between atoms: _75  and  _77
REMARK   38  A    between atoms: _76  and  ZN_279
REMARK   39  A    between atoms: _80  and  _82
REMARK   40  A    between atoms: _82  and  _83
REMARK   41  A    between atoms: _82  and  _85
REMARK   42  A    between atoms: _85  and  _86
REMARK   43  A    between atoms: _91  and  _93
REMARK   44  A    between atoms: _93  and  _94
REMARK   45  A    between atoms: _93  and  _96
REMARK   46  A    between atoms: _96  and  _97
REMARK   47  A    between atoms: _97  and  _98
REMARK   48  A    between atoms: _101  and  _103
REMARK   49  A    between atoms: _103  and  _104
REMARK   50  A    between atoms: _103  and  _106
REMARK   51  A    between atoms: _106  and  _107
REMARK   52  A    between atoms: _112  and  _113
REMARK   53  A    between atoms: _115  and  _117
REMARK   54  A    between atoms: _117  and  _118
REMARK   55  A    between atoms: _117  and  _120
REMARK   56  A    between atoms: _120  and  _121
REMARK   57  A    between atoms: _125  and  ZN_279
REMARK   58  A    between atoms: _126  and  _128
REMARK   59  A    between atoms: _128  and  _129
REMARK   60  A    between atoms: _128  and  _131
REMARK   61  A    between atoms: _131  and  _132
REMARK   62  A    between atoms: _134  and  _136
REMARK   63  A    between atoms: _136  and  _137
REMARK   64  A    between atoms: _136  and  _139
REMARK   65  A    between atoms: _139  and  _140
REMARK   66  A    between atoms: _145  and  _147
REMARK   67  A    between atoms: _147  and  _148
REMARK   68  A    between atoms: _147  and  _150
REMARK   69  A    between atoms: _150  and  _151
REMARK   70  A    between atoms: _156  and  _158
REMARK   71  A    between atoms: _158  and  _159
REMARK   72  A    between atoms: _158  and  _161
REMARK   73  A    between atoms: _161  and  _162
REMARK   74  A    between atoms: _162  and  _163
REMARK   75  A    between atoms: _166  and  _168
REMARK   76  A    between atoms: _168  and  _169
REMARK   77  A    between atoms: _171  and  _173
REMARK   78  A    between atoms: _173  and  _174
REMARK   79  A    between atoms: _173  and  _176
REMARK   80  A    between atoms: _176  and  _177
REMARK   81  A    between atoms: _178  and  ZN_279
REMARK   82  A    between atoms: _182  and  _184
REMARK   83  A    between atoms: _184  and  _185
REMARK   84  A    between atoms: _184  and  _187
REMARK   85  A    between atoms: _190  and  _192
REMARK   86  A    between atoms: _192  and  _193
REMARK   87  A    between atoms: _192  and  _195
REMARK   88  A    between atoms: _195  and  _196
REMARK   89  A    between atoms: _201  and  _203
REMARK   90  A    between atoms: _203  and  _204
REMARK   91  A    between atoms: _206  and  _208
REMARK   92  A    between atoms: _208  and  _209
REMARK   93  A    between atoms: _208  and  _211
REMARK   94  A    between atoms: _211  and  _212
REMARK   95  A    between atoms: _217  and  _219
REMARK   96  A    between atoms: _219  and  _220
REMARK   97  A    between atoms: _219  and  _222
REMARK   98  A    between atoms: _222  and  _223
REMARK   99  A    between atoms: _228  and  _229
REMARK  100  A    between atoms: _231  and  _233
REMARK  101  A    between atoms: _233  and  _234
REMARK  102  A    between atoms: _233  and  _236
REMARK  103  A    between atoms: _239  and  _241
REMARK  104  A    between atoms: _241  and  _242
REMARK  105  A    between atoms: _241  and  _244
REMARK  106  A    between atoms: _244  and  _245
REMARK  107  A    between atoms: _248  and  _250
REMARK  108  A    between atoms: _250  and  _251
REMARK  109  A    between atoms: _250  and  _253
REMARK  110  A    between atoms: _253  and  _254
REMARK  111  A    between atoms: _254  and  _255
REMARK  112  A    between atoms: _255  and  _256
REMARK  113  A    between atoms: _265  and  _267
REMARK  114  A    between atoms: _267  and  _268
REMARK  115  A    between atoms: _267  and  _270
REMARK  116  A    between atoms: _270  and  _271
REMARK  117  A    between atoms: _276  and  _277
REMARK                            x       y       z     vdW  Elec       q    Type
REMARK                         _______ _______ _______ _____ _____    ______ ____
ROOT
ATOM      1  CA  ARG A   2     -68.520  41.975 -38.166  0.00  0.00    +0.137 C 
ENDROOT
BRANCH   1   3
ATOM      2  C   ASP A   1     -66.097  41.780 -38.009  0.00  0.00    +0.239 C 
ATOM      3  N   ARG A   2     -67.302  41.516 -37.497  0.00  0.00    -0.298 N 
ATOM      4  H   ARG A   2     -67.376  40.977 -36.611  0.00  0.00    +0.150 HD
ATOM      5  O   ASP A   1     -65.934  42.308 -39.124  0.00  0.00    -0.274 OA
BRANCH   2   6
ATOM      6  CA  ASP A   1     -64.881  41.393 -37.168  0.00  0.00    +0.156 C 
BRANCH   6   7
ATOM      7  N   ASP A   1     -65.226  40.968 -35.820  0.00  0.00    -0.238 NA
ATOM      8  H   ASP A   1     -65.167  39.962 -35.565  0.00  0.00    +0.142 HD
ENDBRANCH   6   7
BRANCH   6   9
ATOM      9  CB  ASP A   1     -64.010  40.355 -37.895  0.00  0.00    +0.140 C 
BRANCH   9  10
ATOM     10  CG  ASP A   1     -64.755  39.068 -38.195  0.00  0.00    +0.367 C 
ATOM     11  OD2 ASP A   1     -65.784  38.814 -37.542  0.00  0.00    -0.246 OA
ATOM     12  OD1 ASP A   1     -64.300  38.301 -39.071  0.00  0.00    -0.246 OA
ENDBRANCH   9  10
ENDBRANCH   6   9
ENDBRANCH   2   6
ENDBRANCH   1   3
BRANCH   1  13
ATOM     13  C   ARG A   2     -68.750  43.460 -37.905  0.00  0.00    +0.227 C 
ATOM     14  O   ARG A   2     -69.518  44.103 -38.610  0.00  0.00    -0.286 OA
ENDBRANCH   1  13
BRANCH   1  15
ATOM     15  CB  ARG A   2     -69.746  41.166 -37.732  0.00  0.00    +0.031 C 
BRANCH  15  16
ATOM     16  CG  ARG A   2     -69.934  39.866 -38.493  0.00  0.00    +0.045 C 
BRANCH  16  17
ATOM     17  CD  ARG A   2     -71.160  39.098 -38.013  0.00  0.00    +0.174 C 
BRANCH  17  18
ATOM     18  NE  ARG A   2     -72.396  39.844 -38.238  0.00  0.00    -0.265 N 
ATOM     19  HE  ARG A   2     -72.742  40.455 -37.470  0.00  0.00    +0.259 HD
ATOM     20  CZ  ARG A   2     -73.107  39.793 -39.360  0.00  0.00    +0.342 C 
ATOM     21  NH2 ARG A   2     -74.215  40.508 -39.473  0.00  0.00    -0.292 N 
ATOM     22 HH21 ARG A   2     -74.529  41.109 -38.684  0.00  0.00    +0.255 HD
ATOM     23 HH22 ARG A   2     -74.772  40.469 -40.350  0.00  0.00    +0.255 HD
ATOM     24  NH1 ARG A   2     -72.710  39.031 -40.369  0.00  0.00    -0.292 N 
ATOM     25 HH11 ARG A   2     -71.839  38.469 -40.285  0.00  0.00    +0.255 HD
ATOM     26 HH12 ARG A   2     -73.270  38.995 -41.245  0.00  0.00    +0.255 HD
ENDBRANCH  17  18
ENDBRANCH  16  17
ENDBRANCH  15  16
ENDBRANCH   1  15
TORSDOF 10
REMARK  Name = ../refined-set-2016/4dhl/4dhl_pocket.pdb
REMARK  117 active torsions:
REMARK  status: ('A' for Active; 'I' for Inactive)
REMARK    1  A    between atoms: _1  and  _3
REMARK    2  A    between atoms: _3  and  _4
REMARK    3  A    between atoms: _3  and  _6
REMARK    4  A    between atoms: _6  and  _7
REMARK    5  A    between atoms: _7  and  _9
REMARK    6  A    between atoms: _9  and  FE_280
REMARK    7  A    between atoms: _10  and  _12
REMARK    8  A    between atoms: _12  and  _13
REMARK    9  A    between atoms: _15  and  _17
REMARK   10  A    between atoms: _17  and  _18
REMARK   11  A    between atoms: _17  and  _20
REMARK   12  A    between atoms: _20  and  _21
REMARK   13  A    between atoms: _21  and  _23
REMARK   14  A    between atoms: _23  and  FE_280
REMARK   15  A    between atoms: _24  and  _26
REMARK   16  A    between atoms: _26  and  _27
REMARK   17  A    between atoms: _26  and  _29
REMARK   18  A    between atoms: _29  and  _30
REMARK   19  A    between atoms: _35  and  _36
REMARK   20  A    between atoms: _38  and  _40
REMARK   21  A    between atoms: _40  and  _41
REMARK   22  A    between atoms: _40  and  _43
REMARK   23  A    between atoms: _43  and  _44
REMARK   24  A    between atoms: _47  and  _49
REMARK   25  A    between atoms: _49  and  _50
REMARK   26  A    between atoms: _49  and  _52
REMARK   27  A    between atoms: _52  and  _53
REMARK   28  A    between atoms: _53  and  _54
REMARK   29  A    between atoms: _54  and  _55
REMARK   30  A    between atoms: _64  and  _66
REMARK   31  A    between atoms: _66  and  _67
REMARK   32  A    between atoms: _69  and  _71
REMARK   33  A    between atoms: _71  and  _72
REMARK   34  A    between atoms: _71  and  _74
REMARK   35  A    between atoms: _74  and  _75
REMARK   36  A    between atoms: _75  and  _76
REMARK   37  A    between atoms: _75  and  _77
REMARK   38  A    between atoms: _76  and  ZN_279
REMARK   39  A    between atoms: _80  and  _82
REMARK   40  A    between atoms: _82  and  _83
REMARK   41  A    between atoms: _82  and  _85
REMARK   42  A    between atoms: _85  and  _86
REMARK   43  A    between atoms: _91  and  _93
REMARK   44  A    between atoms: _93  and  _94
REMARK   45  A    between atoms: _93  and  _96
REMARK   46  A    between atoms: _96  and  _97
REMARK   47  A    between atoms: _97  and  _98
REMARK   48  A    between atoms: _101  and  _103
REMARK   49  A    between atoms: _103  and  _104
REMARK   50  A    between atoms: _103  and  _106
REMARK   51  A    between atoms: _106  and  _107
REMARK   52  A    between atoms: _112  and  _113
REMARK   53  A    between atoms: _115  and  _117
REMARK   54  A    between atoms: _117  and  _118
REMARK   55  A    between atoms: _117  and  _120
REMARK   56  A    between atoms: _120  and  _121
REMARK   57  A    between atoms: _125  and  ZN_279
REMARK   58  A    between atoms: _126  and  _128
REMARK   59  A    between atoms: _128  and  _129
REMARK   60  A    between atoms: _128  and  _131
REMARK   61  A    between atoms: _131  and  _132
REMARK   62  A    between atoms: _134  and  _136
REMARK   63  A    between atoms: _136  and  _137
REMARK   64  A    between atoms: _136  and  _139
REMARK   65  A    between atoms: _139  and  _140
REMARK   66  A    between atoms: _145  and  _147
REMARK   67  A    between atoms: _147  and  _148
REMARK   68  A    between atoms: _147  and  _150
REMARK   69  A    between atoms: _150  and  _151
REMARK   70  A    between atoms: _156  and  _158
REMARK   71  A    between atoms: _158  and  _159
REMARK   72  A    between atoms: _158  and  _161
REMARK   73  A    between atoms: _161  and  _162
REMARK   74  A    between atoms: _162  and  _163
REMARK   75  A    between atoms: _166  and  _168
REMARK   76  A    between atoms: _168  and  _169
REMARK   77  A    between atoms: _171  and  _173
REMARK   78  A    between atoms: _173  and  _174
REMARK   79  A    between atoms: _173  and  _176
REMARK   80  A    between atoms: _176  and  _177
REMARK   81  A    between atoms: _178  and  ZN_279
REMARK   82  A    between atoms: _182  and  _184
REMARK   83  A    between atoms: _184  and  _185
REMARK   84  A    between atoms: _184  and  _187
REMARK   85  A    between atoms: _190  and  _192
REMARK   86  A    between atoms: _192  and  _193
REMARK   87  A    between atoms: _192  and  _195
REMARK   88  A    between atoms: _195  and  _196
REMARK   89  A    between atoms: _201  and  _203
REMARK   90  A    between atoms: _203  and  _204
REMARK   91  A    between atoms: _206  and  _208
REMARK   92  A    between atoms: _208  and  _209
REMARK   93  A    between atoms: _208  and  _211
REMARK   94  A    between atoms: _211  and  _212
REMARK   95  A    between atoms: _217  and  _219
REMARK   96  A    between atoms: _219  and  _220
REMARK   97  A    between atoms: _219  and  _222
REMARK   98  A    between atoms: _222  and  _223
REMARK   99  A    between atoms: _228  and  _229
REMARK  100  A    between atoms: _231  and  _233
REMARK  101  A    between atoms: _233  and  _234
REMARK  102  A    between atoms: _233  and  _236
REMARK  103  A    between atoms: _239  and  _241
REMARK  104  A    between atoms: _241  and  _242
REMARK  105  A    between atoms: _241  and  _244
REMARK  106  A    between atoms: _244  and  _245
REMARK  107  A    between atoms: _248  and  _250
REMARK  108  A    between atoms: _250  and  _251
REMARK  109  A    between atoms: _250  and  _253
REMARK  110  A    between atoms: _253  and  _254
REMARK  111  A    between atoms: _254  and  _255
REMARK  112  A    between atoms: _255  and  _256
REMARK  113  A    between atoms: _265  and  _267
REMARK  114  A    between atoms: _267  and  _268
REMARK  115  A    between atoms: _267  and  _270
REMARK  116  A    between atoms: _270  and  _271
REMARK  117  A    between atoms: _276  and  _277
REMARK                            x       y       z     vdW  Elec       q    Type
REMARK                         _______ _______ _______ _____ _____    ______ ____
ROOT
ATOM      1 ZN   UNK A   1     -66.963  30.007 -39.496  0.00  0.00    +0.000 Zn
ENDROOT
BRANCH   1   2
ATOM      2  N   UNK A   1     -65.733  28.680 -38.600  0.00  0.00    +0.000 N 
ATOM      3  C   UNK A   1     -65.854  28.296 -37.341  0.00  0.00    +0.000 A 
ATOM      4  N   UNK A   1     -64.893  27.433 -37.077  0.00  0.00    +0.000 NA
ATOM      5  C   UNK A   1     -64.107  27.266 -38.199  0.00  0.00    +0.000 A 
ATOM      6  C   UNK A   1     -64.658  28.042 -39.162  0.00  0.00    +0.000 A 
BRANCH   5   7
ATOM      7  C   UNK A   1     -62.951  26.318 -38.233  0.00  0.00    +0.000 C 
BRANCH   7   8
ATOM      8  C   UNK A   1     -63.379  24.867 -38.012  0.00  0.00    +0.000 C 
BRANCH   8   9
ATOM      9  C   UNK A   1     -64.391  24.472 -39.086  0.00  0.00    +0.000 C 
ATOM     10  O   UNK A   1     -65.587  24.396 -38.812  0.00  0.00    +0.000 OA
ATOM     11  N   UNK A   2     -63.895  24.251 -40.301  0.00  0.00    +0.000 N 
ATOM     12  H   UNK A   2     -62.862  24.268 -40.422  0.00  0.00    +0.000 HD
BRANCH  11  13
ATOM     13  C   UNK A   2     -64.722  23.987 -41.470  0.00  0.00    +0.000 C 
BRANCH  13  14
ATOM     14  C   UNK A   2     -64.975  22.489 -41.640  0.00  0.00    +0.000 C 
ATOM     15  O   UNK A   2     -64.029  21.711 -41.722  0.00  0.00    +0.000 OA
ENDBRANCH  13  14
BRANCH  13  16
ATOM     16  C   UNK A   2     -64.030  24.538 -42.715  0.00  0.00    +0.000 C 
BRANCH  16  17
ATOM     17  O   UNK A   2     -64.879  24.458 -43.851  0.00  0.00    +0.000 OA
ATOM     18  H   UNK A   2     -65.700  24.985 -43.685  0.00  0.00    +0.000 HD
ENDBRANCH  16  17
ENDBRANCH  13  16
ENDBRANCH  11  13
ENDBRANCH   8   9
BRANCH   8  19
ATOM     19  N   UNK A   1     -62.251  23.949 -37.892  0.00  0.00    +0.000 NA
ATOM     20  H   UNK A   1     -61.341  24.163 -38.348  0.00  0.00    +0.000 HD
ENDBRANCH   8  19
ENDBRANCH   7   8
ENDBRANCH   5   7
ENDBRANCH   1   2
BRANCH   1  21
ATOM     21  N   UNK A   1     -67.257  28.761 -41.391  0.00  0.00    +0.000 N 
ATOM     22  C   UNK A   1     -67.485  27.401 -41.445  0.00  0.00    +0.000 A 
ATOM     23  C   UNK A   1     -67.405  27.062 -42.756  0.00  0.00    +0.000 A 
ATOM     24  N   UNK A   1     -67.160  28.215 -43.462  0.00  0.00    +0.000 NA
ATOM     25  C   UNK A   1     -67.075  29.227 -42.615  0.00  0.00    +0.000 A 
BRANCH  22  26
ATOM     26  C   UNK A   1     -67.693  26.550 -40.221  0.00  0.00    +0.000 C 
BRANCH  26  27
ATOM     27  C   UNK A   1     -68.647  27.141 -39.179  0.00  0.00    +0.000 C 
BRANCH  27  28
ATOM     28  C   UNK A   1     -70.078  27.179 -39.720  0.00  0.00    +0.000 C 
ATOM     29  N   VAL A   3     -70.694  26.006 -39.856  0.00  0.00    +0.000 N 
ATOM     30  H   VAL A   3     -70.164  25.128 -39.683  0.00  0.00    +0.000 HD
ATOM     31  O   UNK A   1     -70.613  28.255 -40.012  0.00  0.00    +0.000 OA
BRANCH  29  32
ATOM     32  CA  VAL A   3     -72.103  25.930 -40.244  0.00  0.00    +0.000 C 
BRANCH  32  33
ATOM     33  C   VAL A   3     -72.967  26.127 -39.012  0.00  0.00    +0.000 C 
ATOM     34  O   VAL A   3     -72.808  25.433 -38.004  0.00  0.00    +0.000 OA
ATOM     35  N   HIS A   4     -73.886  27.077 -39.093  0.00  0.00    +0.000 N 
ATOM     36  H   HIS A   4     -74.056  27.556 -40.000  0.00  0.00    +0.000 HD
BRANCH  35  37
ATOM     37  CA  HIS A   4     -74.654  27.451 -37.927  0.00  0.00    +0.000 C 
BRANCH  37  38
ATOM     38  C   HIS A   4     -75.839  26.525 -37.673  0.00  0.00    +0.000 C 
ATOM     39  O   HIS A   4     -76.996  26.930 -37.760  0.00  0.00    +0.000 OA
ENDBRANCH  37  38
BRANCH  37  40
ATOM     40  CB  HIS A   4     -75.050  28.923 -38.011  0.00  0.00    +0.000 C 
BRANCH  40  41
ATOM     41  CG  HIS A   4     -73.870  29.837 -38.065  0.00  0.00    +0.000 A 
ATOM     42  CD2 HIS A   4     -72.595  29.665 -37.636  0.00  0.00    +0.000 A 
ATOM     43  NE2 HIS A   4     -71.905  30.813 -37.942  0.00  0.00    +0.000 NA
ATOM     44  CE1 HIS A   4     -72.720  31.652 -38.559  0.00  0.00    +0.000 A 
ATOM     45  ND1 HIS A   4     -73.911  31.085 -38.651  0.00  0.00    +0.000 NA
ENDBRANCH  40  41
ENDBRANCH  37  40
ENDBRANCH  35  37
ENDBRANCH  32  33
BRANCH  32  46
ATOM     46  CB  VAL A   3     -72.461  24.586 -40.904  0.00  0.00    +0.000 C 
ATOM     47  CG2 VAL A   3     -73.972  24.459 -41.046  0.00  0.00    +0.000 C 
ATOM     48  CG1 VAL A   3     -71.758  24.443 -42.267  0.00  0.00    +0.000 C 
ENDBRANCH  32  46
ENDBRANCH  29  32
ENDBRANCH  27  28
BRANCH  27  49
ATOM     49  N   UNK A   1     -68.557  26.382 -37.923  0.00  0.00    +0.000 N 
ATOM     50  H   UNK A   1     -68.409  26.905 -37.036  0.00  0.00    +0.000 HD
ATOM     51  C   UNK A   1     -68.657  25.046 -37.869  0.00  0.00    +0.000 C 
ATOM     52  O   UNK A   1     -69.040  24.360 -38.805  0.00  0.00    +0.000 OA
BRANCH  51  53
ATOM     53  C   UNK A   1     -68.290  24.368 -36.562  0.00  0.00    +0.000 C 
BRANCH  53  54
ATOM     54  N   UNK A   1     -67.242  23.372 -36.751  0.00  0.00    +0.000 NA
ATOM     55  H   UNK A   1     -66.375  23.645 -37.257  0.00  0.00    +0.000 HD
ENDBRANCH  53  54
ENDBRANCH  51  53
ENDBRANCH  27  49
ENDBRANCH  26  27
ENDBRANCH  22  26
ENDBRANCH   1  21
BRANCH   1  56
ATOM     56  O   UNK A   2     -65.422  31.236 -40.420  0.00  0.00    +0.000 OA
BRANCH  56  57
ATOM     57  C   UNK A   2     -64.927  31.970 -41.258  0.00  0.00    +0.000 C 
BRANCH  57  58
ATOM     58  N   UNK A   2     -65.651  32.782 -42.011  0.00  0.00    +0.000 NA
ATOM     59  H   UNK A   2     -66.685  32.811 -41.900  0.00  0.00    +0.000 HD
ATOM     60  H   UNK A   2     -65.186  33.391 -42.714  0.00  0.00    +0.000 HD
ENDBRANCH  57  58
BRANCH  57  61
ATOM     61  C   UNK A   2     -63.433  31.988 -41.479  0.00  0.00    +0.000 C 
BRANCH  61  62
ATOM     62  C   UNK A   2     -62.640  32.213 -40.179  0.00  0.00    +0.000 C 
BRANCH  62  65
ATOM     63  C   UNK A   1     -61.961  30.981 -38.216  0.00  0.00    +0.000 C 
ATOM     64  O   UNK A   1     -61.045  31.776 -38.015  0.00  0.00    +0.000 OA
ATOM     65  N   UNK A   2     -62.833  31.135 -39.208  0.00  0.00    +0.000 N 
ATOM     66  H   UNK A   2     -63.647  30.493 -39.293  0.00  0.00    +0.000 HD
BRANCH  63  67
ATOM     67  C   UNK A   1     -62.129  29.781 -37.304  0.00  0.00    +0.000 C 
BRANCH  67  68
ATOM     68  N   UNK A   1     -61.098  29.792 -36.280  0.00  0.00    +0.000 NA
ATOM     69  H   UNK A   1     -61.137  30.519 -35.538  0.00  0.00    +0.000 HD
ENDBRANCH  67  68
ENDBRANCH  63  67
ENDBRANCH  62  65
BRANCH  62  70
ATOM     70  C   UNK A   2     -62.854  33.628 -39.631  0.00  0.00    +0.000 C 
ATOM     71  N   VAL A   3     -63.608  33.764 -38.547  0.00  0.00    +0.000 N 
ATOM     72  H   VAL A   3     -64.077  32.935 -38.129  0.00  0.00    +0.000 HD
ATOM     73  O   UNK A   2     -62.318  34.583 -40.175  0.00  0.00    +0.000 OA
BRANCH  71  74
ATOM     74  CA  VAL A   3     -63.777  35.083 -37.943  0.00  0.00    +0.000 C 
BRANCH  74  75
ATOM     75  C   VAL A   3     -62.548  35.546 -37.168  0.00  0.00    +0.000 C 
ATOM     76  O   VAL A   3     -62.441  36.720 -36.817  0.00  0.00    +0.000 OA
ATOM     77  N   HIS A   4     -61.614  34.631 -36.934  0.00  0.00    +0.000 N 
ATOM     78  H   HIS A   4     -61.788  33.642 -37.204  0.00  0.00    +0.000 HD
BRANCH  77  79
ATOM     79  CA  HIS A   4     -60.343  34.993 -36.301  0.00  0.00    +0.000 C 
BRANCH  79  80
ATOM     80  C   HIS A   4     -59.299  35.490 -37.312  0.00  0.00    +0.000 C 
ATOM     81  O   HIS A   4     -58.355  36.178 -36.932  0.00  0.00    +0.000 OA
ENDBRANCH  79  80
BRANCH  79  82
ATOM     82  CB  HIS A   4     -59.784  33.822 -35.470  0.00  0.00    +0.000 C 
BRANCH  82  83
ATOM     83  CG  HIS A   4     -60.495  33.620 -34.132  0.00  0.00    +0.000 C 
BRANCH  83  84
ATOM     84  CD  HIS A   4     -61.914  33.054 -34.296  0.00  0.00    +0.000 C 
ATOM     85  OE2 HIS A   4     -62.893  33.781 -34.024  0.00  0.00    +0.000 OA
ATOM     86  OE1 HIS A   4     -62.054  31.875 -34.689  0.00  0.00    +0.000 OA
ENDBRANCH  83  84
ENDBRANCH  82  83
ENDBRANCH  79  82
ENDBRANCH  77  79
ENDBRANCH  74  75
BRANCH  74  87
ATOM     87  CB  VAL A   3     -65.052  35.171 -37.102  0.00  0.00    +0.000 C 
BRANCH  87  88
ATOM     88  CG  VAL A   3     -66.294  35.249 -37.932  0.00  0.00    +0.000 A 
ATOM     89  CD2 VAL A   3     -67.151  34.286 -38.352  0.00  0.00    +0.000 A 
ATOM     90  NE2 VAL A   3     -68.104  34.904 -39.125  0.00  0.00    +0.000 NA
ATOM     91  CE1 VAL A   3     -67.843  36.198 -39.176  0.00  0.00    +0.000 A 
ATOM     92  ND1 VAL A   3     -66.747  36.430 -38.475  0.00  0.00    +0.000 NA
ENDBRANCH  87  88
ENDBRANCH  74  87
ENDBRANCH  71  74
ENDBRANCH  62  70
ENDBRANCH  61  62
ENDBRANCH  57  61
ENDBRANCH  56  57
ENDBRANCH   1  56
TORSDOF 41
REMARK  Name = ../refined-set-2016/4dhl/4dhl_pocket.pdb
REMARK  117 active torsions:
REMARK  status: ('A' for Active; 'I' for Inactive)
REMARK    1  A    between atoms: _1  and  _3
REMARK    2  A    between atoms: _3  and  _4
REMARK    3  A    between atoms: _3  and  _6
REMARK    4  A    between atoms: _6  and  _7
REMARK    5  A    between atoms: _7  and  _9
REMARK    6  A    between atoms: _9  and  FE_280
REMARK    7  A    between atoms: _10  and  _12
REMARK    8  A    between atoms: _12  and  _13
REMARK    9  A    between atoms: _15  and  _17
REMARK   10  A    between atoms: _17  and  _18
REMARK   11  A    between atoms: _17  and  _20
REMARK   12  A    between atoms: _20  and  _21
REMARK   13  A    between atoms: _21  and  _23
REMARK   14  A    between atoms: _23  and  FE_280
REMARK   15  A    between atoms: _24  and  _26
REMARK   16  A    between atoms: _26  and  _27
REMARK   17  A    between atoms: _26  and  _29
REMARK   18  A    between atoms: _29  and  _30
REMARK   19  A    between atoms: _35  and  _36
REMARK   20  A    between atoms: _38  and  _40
REMARK   21  A    between atoms: _40  and  _41
REMARK   22  A    between atoms: _40  and  _43
REMARK   23  A    between atoms: _43  and  _44
REMARK   24  A    between atoms: _47  and  _49
REMARK   25  A    between atoms: _49  and  _50
REMARK   26  A    between atoms: _49  and  _52
REMARK   27  A    between atoms: _52  and  _53
REMARK   28  A    between atoms: _53  and  _54
REMARK   29  A    between atoms: _54  and  _55
REMARK   30  A    between atoms: _64  and  _66
REMARK   31  A    between atoms: _66  and  _67
REMARK   32  A    between atoms: _69  and  _71
REMARK   33  A    between atoms: _71  and  _72
REMARK   34  A    between atoms: _71  and  _74
REMARK   35  A    between atoms: _74  and  _75
REMARK   36  A    between atoms: _75  and  _76
REMARK   37  A    between atoms: _75  and  _77
REMARK   38  A    between atoms: _76  and  ZN_279
REMARK   39  A    between atoms: _80  and  _82
REMARK   40  A    between atoms: _82  and  _83
REMARK   41  A    between atoms: _82  and  _85
REMARK   42  A    between atoms: _85  and  _86
REMARK   43  A    between atoms: _91  and  _93
REMARK   44  A    between atoms: _93  and  _94
REMARK   45  A    between atoms: _93  and  _96
REMARK   46  A    between atoms: _96  and  _97
REMARK   47  A    between atoms: _97  and  _98
REMARK   48  A    between atoms: _101  and  _103
REMARK   49  A    between atoms: _103  and  _104
REMARK   50  A    between atoms: _103  and  _106
REMARK   51  A    between atoms: _106  and  _107
REMARK   52  A    between atoms: _112  and  _113
REMARK   53  A    between atoms: _115  and  _117
REMARK   54  A    between atoms: _117  and  _118
REMARK   55  A    between atoms: _117  and  _120
REMARK   56  A    between atoms: _120  and  _121
REMARK   57  A    between atoms: _125  and  ZN_279
REMARK   58  A    between atoms: _126  and  _128
REMARK   59  A    between atoms: _128  and  _129
REMARK   60  A    between atoms: _128  and  _131
REMARK   61  A    between atoms: _131  and  _132
REMARK   62  A    between atoms: _134  and  _136
REMARK   63  A    between atoms: _136  and  _137
REMARK   64  A    between atoms: _136  and  _139
REMARK   65  A    between atoms: _139  and  _140
REMARK   66  A    between atoms: _145  and  _147
REMARK   67  A    between atoms: _147  and  _148
REMARK   68  A    between atoms: _147  and  _150
REMARK   69  A    between atoms: _150  and  _151
REMARK   70  A    between atoms: _156  and  _158
REMARK   71  A    between atoms: _158  and  _159
REMARK   72  A    between atoms: _158  and  _161
REMARK   73  A    between atoms: _161  and  _162
REMARK   74  A    between atoms: _162  and  _163
REMARK   75  A    between atoms: _166  and  _168
REMARK   76  A    between atoms: _168  and  _169
REMARK   77  A    between atoms: _171  and  _173
REMARK   78  A    between atoms: _173  and  _174
REMARK   79  A    between atoms: _173  and  _176
REMARK   80  A    between atoms: _176  and  _177
REMARK   81  A    between atoms: _178  and  ZN_279
REMARK   82  A    between atoms: _182  and  _184
REMARK   83  A    between atoms: _184  and  _185
REMARK   84  A    between atoms: _184  and  _187
REMARK   85  A    between atoms: _190  and  _192
REMARK   86  A    between atoms: _192  and  _193
REMARK   87  A    between atoms: _192  and  _195
REMARK   88  A    between atoms: _195  and  _196
REMARK   89  A    between atoms: _201  and  _203
REMARK   90  A    between atoms: _203  and  _204
REMARK   91  A    between atoms: _206  and  _208
REMARK   92  A    between atoms: _208  and  _209
REMARK   93  A    between atoms: _208  and  _211
REMARK   94  A    between atoms: _211  and  _212
REMARK   95  A    between atoms: _217  and  _219
REMARK   96  A    between atoms: _219  and  _220
REMARK   97  A    between atoms: _219  and  _222
REMARK   98  A    between atoms: _222  and  _223
REMARK   99  A    between atoms: _228  and  _229
REMARK  100  A    between atoms: _231  and  _233
REMARK  101  A    between atoms: _233  and  _234
REMARK  102  A    between atoms: _233  and  _236
REMARK  103  A    between atoms: _239  and  _241
REMARK  104  A    between atoms: _241  and  _242
REMARK  105  A    between atoms: _241  and  _244
REMARK  106  A    between atoms: _244  and  _245
REMARK  107  A    between atoms: _248  and  _250
REMARK  108  A    between atoms: _250  and  _251
REMARK  109  A    between atoms: _250  and  _253
REMARK  110  A    between atoms: _253  and  _254
REMARK  111  A    between atoms: _254  and  _255
REMARK  112  A    between atoms: _255  and  _256
REMARK  113  A    between atoms: _265  and  _267
REMARK  114  A    between atoms: _267  and  _268
REMARK  115  A    between atoms: _267  and  _270
REMARK  116  A    between atoms: _270  and  _271
REMARK  117  A    between atoms: _276  and  _277
REMARK                            x       y       z     vdW  Elec       q    Type
REMARK                         _______ _______ _______ _____ _____    ______ ____
ROOT
ATOM      1  CG  TYR A   1     -59.607  29.492 -42.398  0.00  0.00    -0.020 A 
ATOM      2  CD2 TYR A   1     -60.314  29.336 -41.203  0.00  0.00    -0.001 A 
ATOM      3  CE2 TYR A   1     -61.663  28.931 -41.209  0.00  0.00    +0.036 A 
ATOM      4  CZ  TYR A   1     -62.286  28.662 -42.420  0.00  0.00    +0.134 A 
ATOM      5  CE1 TYR A   1     -61.586  28.794 -43.606  0.00  0.00    +0.036 A 
ATOM      6  CD1 TYR A   1     -60.260  29.199 -43.589  0.00  0.00    -0.001 A 
ENDROOT
BRANCH   4   7
ATOM      7  OH  TYR A   1     -63.606  28.258 -42.478  0.00  0.00    -0.506 OA
ATOM      8  HH  TYR A   1     -63.659  27.366 -42.905  0.00  0.00    +0.292 HD
ENDBRANCH   4   7
BRANCH   1   9
ATOM      9  CB  TYR A   1     -58.146  29.895 -42.410  0.00  0.00    +0.051 C 
BRANCH   9  10
ATOM     10  CA  TYR A   1     -57.295  28.713 -42.875  0.00  0.00    +0.137 C 
BRANCH  10  11
ATOM     11  N   TYR A   1     -57.672  27.539 -42.108  0.00  0.00    -0.239 NA
ATOM     12  H   TYR A   1     -57.542  27.539 -41.076  0.00  0.00    +0.142 HD
ENDBRANCH  10  11
BRANCH  10  13
ATOM     13  C   TYR A   1     -55.790  28.969 -42.807  0.00  0.00    +0.224 C 
ATOM     14  O   TYR A   1     -55.331  30.109 -42.926  0.00  0.00    -0.287 OA
ENDBRANCH  10  13
ENDBRANCH   9  10
ENDBRANCH   1   9
TORSDOF 5
REMARK  Name = ../refined-set-2016/4dhl/4dhl_pocket.pdb
REMARK  117 active torsions:
REMARK  status: ('A' for Active; 'I' for Inactive)
REMARK    1  A    between atoms: _1  and  _3
REMARK    2  A    between atoms: _3  and  _4
REMARK    3  A    between atoms: _3  and  _6
REMARK    4  A    between atoms: _6  and  _7
REMARK    5  A    between atoms: _7  and  _9
REMARK    6  A    between atoms: _9  and  FE_280
REMARK    7  A    between atoms: _10  and  _12
REMARK    8  A    between atoms: _12  and  _13
REMARK    9  A    between atoms: _15  and  _17
REMARK   10  A    between atoms: _17  and  _18
REMARK   11  A    between atoms: _17  and  _20
REMARK   12  A    between atoms: _20  and  _21
REMARK   13  A    between atoms: _21  and  _23
REMARK   14  A    between atoms: _23  and  FE_280
REMARK   15  A    between atoms: _24  and  _26
REMARK   16  A    between atoms: _26  and  _27
REMARK   17  A    between atoms: _26  and  _29
REMARK   18  A    between atoms: _29  and  _30
REMARK   19  A    between atoms: _35  and  _36
REMARK   20  A    between atoms: _38  and  _40
REMARK   21  A    between atoms: _40  and  _41
REMARK   22  A    between atoms: _40  and  _43
REMARK   23  A    between atoms: _43  and  _44
REMARK   24  A    between atoms: _47  and  _49
REMARK   25  A    between atoms: _49  and  _50
REMARK   26  A    between atoms: _49  and  _52
REMARK   27  A    between atoms: _52  and  _53
REMARK   28  A    between atoms: _53  and  _54
REMARK   29  A    between atoms: _54  and  _55
REMARK   30  A    between atoms: _64  and  _66
REMARK   31  A    between atoms: _66  and  _67
REMARK   32  A    between atoms: _69  and  _71
REMARK   33  A    between atoms: _71  and  _72
REMARK   34  A    between atoms: _71  and  _74
REMARK   35  A    between atoms: _74  and  _75
REMARK   36  A    between atoms: _75  and  _76
REMARK   37  A    between atoms: _75  and  _77
REMARK   38  A    between atoms: _76  and  ZN_279
REMARK   39  A    between atoms: _80  and  _82
REMARK   40  A    between atoms: _82  and  _83
REMARK   41  A    between atoms: _82  and  _85
REMARK   42  A    between atoms: _85  and  _86
REMARK   43  A    between atoms: _91  and  _93
REMARK   44  A    between atoms: _93  and  _94
REMARK   45  A    between atoms: _93  and  _96
REMARK   46  A    between atoms: _96  and  _97
REMARK   47  A    between atoms: _97  and  _98
REMARK   48  A    between atoms: _101  and  _103
REMARK   49  A    between atoms: _103  and  _104
REMARK   50  A    between atoms: _103  and  _106
REMARK   51  A    between atoms: _106  and  _107
REMARK   52  A    between atoms: _112  and  _113
REMARK   53  A    between atoms: _115  and  _117
REMARK   54  A    between atoms: _117  and  _118
REMARK   55  A    between atoms: _117  and  _120
REMARK   56  A    between atoms: _120  and  _121
REMARK   57  A    between atoms: _125  and  ZN_279
REMARK   58  A    between atoms: _126  and  _128
REMARK   59  A    between atoms: _128  and  _129
REMARK   60  A    between atoms: _128  and  _131
REMARK   61  A    between atoms: _131  and  _132
REMARK   62  A    between atoms: _134  and  _136
REMARK   63  A    between atoms: _136  and  _137
REMARK   64  A    between atoms: _136  and  _139
REMARK   65  A    between atoms: _139  and  _140
REMARK   66  A    between atoms: _145  and  _147
REMARK   67  A    between atoms: _147  and  _148
REMARK   68  A    between atoms: _147  and  _150
REMARK   69  A    between atoms: _150  and  _151
REMARK   70  A    between atoms: _156  and  _158
REMARK   71  A    between atoms: _158  and  _159
REMARK   72  A    between atoms: _158  and  _161
REMARK   73  A    between atoms: _161  and  _162
REMARK   74  A    between atoms: _162  and  _163
REMARK   75  A    between atoms: _166  and  _168
REMARK   76  A    between atoms: _168  and  _169
REMARK   77  A    between atoms: _171  and  _173
REMARK   78  A    between atoms: _173  and  _174
REMARK   79  A    between atoms: _173  and  _176
REMARK   80  A    between atoms: _176  and  _177
REMARK   81  A    between atoms: _178  and  ZN_279
REMARK   82  A    between atoms: _182  and  _184
REMARK   83  A    between atoms: _184  and  _185
REMARK   84  A    between atoms: _184  and  _187
REMARK   85  A    between atoms: _190  and  _192
REMARK   86  A    between atoms: _192  and  _193
REMARK   87  A    between atoms: _192  and  _195
REMARK   88  A    between atoms: _195  and  _196
REMARK   89  A    between atoms: _201  and  _203
REMARK   90  A    between atoms: _203  and  _204
REMARK   91  A    between atoms: _206  and  _208
REMARK   92  A    between atoms: _208  and  _209
REMARK   93  A    between atoms: _208  and  _211
REMARK   94  A    between atoms: _211  and  _212
REMARK   95  A    between atoms: _217  and  _219
REMARK   96  A    between atoms: _219  and  _220
REMARK   97  A    between atoms: _219  and  _222
REMARK   98  A    between atoms: _222  and  _223
REMARK   99  A    between atoms: _228  and  _229
REMARK  100  A    between atoms: _231  and  _233
REMARK  101  A    between atoms: _233  and  _234
REMARK  102  A    between atoms: _233  and  _236
REMARK  103  A    between atoms: _239  and  _241
REMARK  104  A    between atoms: _241  and  _242
REMARK  105  A    between atoms: _241  and  _244
REMARK  106  A    between atoms: _244  and  _245
REMARK  107  A    between atoms: _248  and  _250
REMARK  108  A    between atoms: _250  and  _251
REMARK  109  A    between atoms: _250  and  _253
REMARK  110  A    between atoms: _253  and  _254
REMARK  111  A    between atoms: _254  and  _255
REMARK  112  A    between atoms: _255  and  _256
REMARK  113  A    between atoms: _265  and  _267
REMARK  114  A    between atoms: _267  and  _268
REMARK  115  A    between atoms: _267  and  _270
REMARK  116  A    between atoms: _270  and  _271
REMARK  117  A    between atoms: _276  and  _277
REMARK                            x       y       z     vdW  Elec       q    Type
REMARK                         _______ _______ _______ _____ _____    ______ ____
ROOT
ATOM      1  C   HIS A   1     -73.083  26.770 -46.035  0.00  0.00    +0.239 C 
ATOM      2  O   HIS A   1     -72.916  25.761 -45.335  0.00  0.00    -0.274 OA
ATOM      3  N   HIS A   2     -72.132  27.298 -46.804  0.00  0.00    -0.298 N 
ATOM      4  H   HIS A   2     -72.373  28.107 -47.412  0.00  0.00    +0.150 HD
ENDROOT
BRANCH   1   5
ATOM      5  CA  HIS A   1     -74.435  27.479 -46.068  0.00  0.00    +0.151 C 
BRANCH   5   6
ATOM      6  N   HIS A   1     -75.467  26.544 -46.489  0.00  0.00    -0.238 NA
ATOM      7  H   HIS A   1     -76.296  26.387 -45.881  0.00  0.00    +0.142 HD
ENDBRANCH   5   6
BRANCH   5   8
ATOM      8  CB  HIS A   1     -74.766  28.060 -44.693  0.00  0.00    +0.074 C 
BRANCH   8   9
ATOM      9  CG  HIS A   1     -74.054  29.345 -44.386  0.00  0.00    +0.082 A 
ATOM     10  CD2 HIS A   1     -73.678  29.894 -43.206  0.00  0.00    +0.115 A 
ATOM     11  NE2 HIS A   1     -73.066  31.091 -43.493  0.00  0.00    -0.221 NA
ATOM     12  CE1 HIS A   1     -73.061  31.267 -44.802  0.00  0.00    +0.199 A 
ATOM     13  ND1 HIS A   1     -73.657  30.232 -45.364  0.00  0.00    -0.227 NA
ENDBRANCH   8   9
ENDBRANCH   5   8
ENDBRANCH   1   5
BRANCH   3  14
ATOM     14  CA  HIS A   2     -70.762  26.786 -46.828  0.00  0.00    +0.143 C 
BRANCH  14  15
ATOM     15  C   HIS A   2     -70.673  25.368 -47.371  0.00  0.00    +0.227 C 
ATOM     16  O   HIS A   2     -69.712  24.651 -47.080  0.00  0.00    -0.286 OA
ENDBRANCH  14  15
BRANCH  14  17
ATOM     17  CB  HIS A   2     -70.142  26.820 -45.432  0.00  0.00    +0.075 C 
BRANCH  17  18
ATOM     18  CG  HIS A   2     -70.098  28.183 -44.811  0.00  0.00    +0.082 A 
ATOM     19  CD2 HIS A   2     -70.429  28.605 -43.567  0.00  0.00    +0.115 A 
ATOM     20  NE2 HIS A   2     -70.172  29.955 -43.515  0.00  0.00    -0.221 NA
ATOM     21  CE1 HIS A   2     -69.694  30.347 -44.684  0.00  0.00    +0.199 A 
ATOM     22  ND1 HIS A   2     -69.638  29.297 -45.484  0.00  0.00    -0.227 NA
ENDBRANCH  17  18
ENDBRANCH  14  17
ENDBRANCH   3  14
TORSDOF 8
REMARK  Name = ../refined-set-2016/4dhl/4dhl_pocket.pdb
REMARK  117 active torsions:
REMARK  status: ('A' for Active; 'I' for Inactive)
REMARK    1  A    between atoms: _1  and  _3
REMARK    2  A    between atoms: _3  and  _4
REMARK    3  A    between atoms: _3  and  _6
REMARK    4  A    between atoms: _6  and  _7
REMARK    5  A    between atoms: _7  and  _9
REMARK    6  A    between atoms: _9  and  FE_280
REMARK    7  A    between atoms: _10  and  _12
REMARK    8  A    between atoms: _12  and  _13
REMARK    9  A    between atoms: _15  and  _17
REMARK   10  A    between atoms: _17  and  _18
REMARK   11  A    between atoms: _17  and  _20
REMARK   12  A    between atoms: _20  and  _21
REMARK   13  A    between atoms: _21  and  _23
REMARK   14  A    between atoms: _23  and  FE_280
REMARK   15  A    between atoms: _24  and  _26
REMARK   16  A    between atoms: _26  and  _27
REMARK   17  A    between atoms: _26  and  _29
REMARK   18  A    between atoms: _29  and  _30
REMARK   19  A    between atoms: _35  and  _36
REMARK   20  A    between atoms: _38  and  _40
REMARK   21  A    between atoms: _40  and  _41
REMARK   22  A    between atoms: _40  and  _43
REMARK   23  A    between atoms: _43  and  _44
REMARK   24  A    between atoms: _47  and  _49
REMARK   25  A    between atoms: _49  and  _50
REMARK   26  A    between atoms: _49  and  _52
REMARK   27  A    between atoms: _52  and  _53
REMARK   28  A    between atoms: _53  and  _54
REMARK   29  A    between atoms: _54  and  _55
REMARK   30  A    between atoms: _64  and  _66
REMARK   31  A    between atoms: _66  and  _67
REMARK   32  A    between atoms: _69  and  _71
REMARK   33  A    between atoms: _71  and  _72
REMARK   34  A    between atoms: _71  and  _74
REMARK   35  A    between atoms: _74  and  _75
REMARK   36  A    between atoms: _75  and  _76
REMARK   37  A    between atoms: _75  and  _77
REMARK   38  A    between atoms: _76  and  ZN_279
REMARK   39  A    between atoms: _80  and  _82
REMARK   40  A    between atoms: _82  and  _83
REMARK   41  A    between atoms: _82  and  _85
REMARK   42  A    between atoms: _85  and  _86
REMARK   43  A    between atoms: _91  and  _93
REMARK   44  A    between atoms: _93  and  _94
REMARK   45  A    between atoms: _93  and  _96
REMARK   46  A    between atoms: _96  and  _97
REMARK   47  A    between atoms: _97  and  _98
REMARK   48  A    between atoms: _101  and  _103
REMARK   49  A    between atoms: _103  and  _104
REMARK   50  A    between atoms: _103  and  _106
REMARK   51  A    between atoms: _106  and  _107
REMARK   52  A    between atoms: _112  and  _113
REMARK   53  A    between atoms: _115  and  _117
REMARK   54  A    between atoms: _117  and  _118
REMARK   55  A    between atoms: _117  and  _120
REMARK   56  A    between atoms: _120  and  _121
REMARK   57  A    between atoms: _125  and  ZN_279
REMARK   58  A    between atoms: _126  and  _128
REMARK   59  A    between atoms: _128  and  _129
REMARK   60  A    between atoms: _128  and  _131
REMARK   61  A    between atoms: _131  and  _132
REMARK   62  A    between atoms: _134  and  _136
REMARK   63  A    between atoms: _136  and  _137
REMARK   64  A    between atoms: _136  and  _139
REMARK   65  A    between atoms: _139  and  _140
REMARK   66  A    between atoms: _145  and  _147
REMARK   67  A    between atoms: _147  and  _148
REMARK   68  A    between atoms: _147  and  _150
REMARK   69  A    between atoms: _150  and  _151
REMARK   70  A    between atoms: _156  and  _158
REMARK   71  A    between atoms: _158  and  _159
REMARK   72  A    between atoms: _158  and  _161
REMARK   73  A    between atoms: _161  and  _162
REMARK   74  A    between atoms: _162  and  _163
REMARK   75  A    between atoms: _166  and  _168
REMARK   76  A    between atoms: _168  and  _169
REMARK   77  A    between atoms: _171  and  _173
REMARK   78  A    between atoms: _173  and  _174
REMARK   79  A    between atoms: _173  and  _176
REMARK   80  A    between atoms: _176  and  _177
REMARK   81  A    between atoms: _178  and  ZN_279
REMARK   82  A    between atoms: _182  and  _184
REMARK   83  A    between atoms: _184  and  _185
REMARK   84  A    between atoms: _184  and  _187
REMARK   85  A    between atoms: _190  and  _192
REMARK   86  A    between atoms: _192  and  _193
REMARK   87  A    between atoms: _192  and  _195
REMARK   88  A    between atoms: _195  and  _196
REMARK   89  A    between atoms: _201  and  _203
REMARK   90  A    between atoms: _203  and  _204
REMARK   91  A    between atoms: _206  and  _208
REMARK   92  A    between atoms: _208  and  _209
REMARK   93  A    between atoms: _208  and  _211
REMARK   94  A    between atoms: _211  and  _212
REMARK   95  A    between atoms: _217  and  _219
REMARK   96  A    between atoms: _219  and  _220
REMARK   97  A    between atoms: _219  and  _222
REMARK   98  A    between atoms: _222  and  _223
REMARK   99  A    between atoms: _228  and  _229
REMARK  100  A    between atoms: _231  and  _233
REMARK  101  A    between atoms: _233  and  _234
REMARK  102  A    between atoms: _233  and  _236
REMARK  103  A    between atoms: _239  and  _241
REMARK  104  A    between atoms: _241  and  _242
REMARK  105  A    between atoms: _241  and  _244
REMARK  106  A    between atoms: _244  and  _245
REMARK  107  A    between atoms: _248  and  _250
REMARK  108  A    between atoms: _250  and  _251
REMARK  109  A    between atoms: _250  and  _253
REMARK  110  A    between atoms: _253  and  _254
REMARK  111  A    between atoms: _254  and  _255
REMARK  112  A    between atoms: _255  and  _256
REMARK  113  A    between atoms: _265  and  _267
REMARK  114  A    between atoms: _267  and  _268
REMARK  115  A    between atoms: _267  and  _270
REMARK  116  A    between atoms: _270  and  _271
REMARK  117  A    between atoms: _276  and  _277
REMARK                            x       y       z     vdW  Elec       q    Type
REMARK                         _______ _______ _______ _____ _____    ______ ____
ROOT
ATOM      1  CA  GLU A   1     -66.001  24.379 -48.480  0.00  0.00    +0.134 C 
ENDROOT
BRANCH   1   2
ATOM      2  N   GLU A   1     -67.216  23.628 -48.802  0.00  0.00    -0.239 NA
ATOM      3  H   GLU A   1     -68.105  23.850 -48.309  0.00  0.00    +0.142 HD
ENDBRANCH   1   2
BRANCH   1   4
ATOM      4  C   GLU A   1     -64.921  23.476 -47.882  0.00  0.00    +0.224 C 
ATOM      5  O   GLU A   1     -63.719  23.711 -48.073  0.00  0.00    -0.287 OA
ENDBRANCH   1   4
BRANCH   1   6
ATOM      6  CB  GLU A   1     -66.301  25.542 -47.528  0.00  0.00    +0.037 C 
BRANCH   6   7
ATOM      7  CG  GLU A   1     -67.021  26.706 -48.193  0.00  0.00    +0.116 C 
BRANCH   7   8
ATOM      8  CD  GLU A   1     -67.266  27.878 -47.250  0.00  0.00    +0.365 C 
ATOM      9  OE2 GLU A   1     -66.539  28.019 -46.229  0.00  0.00    -0.246 OA
ATOM     10  OE1 GLU A   1     -68.196  28.660 -47.540  0.00  0.00    -0.246 OA
ENDBRANCH   7   8
ENDBRANCH   6   7
ENDBRANCH   1   6
TORSDOF 5
REMARK  Name = ../refined-set-2016/4dhl/4dhl_pocket.pdb
REMARK  117 active torsions:
REMARK  status: ('A' for Active; 'I' for Inactive)
REMARK    1  A    between atoms: _1  and  _3
REMARK    2  A    between atoms: _3  and  _4
REMARK    3  A    between atoms: _3  and  _6
REMARK    4  A    between atoms: _6  and  _7
REMARK    5  A    between atoms: _7  and  _9
REMARK    6  A    between atoms: _9  and  FE_280
REMARK    7  A    between atoms: _10  and  _12
REMARK    8  A    between atoms: _12  and  _13
REMARK    9  A    between atoms: _15  and  _17
REMARK   10  A    between atoms: _17  and  _18
REMARK   11  A    between atoms: _17  and  _20
REMARK   12  A    between atoms: _20  and  _21
REMARK   13  A    between atoms: _21  and  _23
REMARK   14  A    between atoms: _23  and  FE_280
REMARK   15  A    between atoms: _24  and  _26
REMARK   16  A    between atoms: _26  and  _27
REMARK   17  A    between atoms: _26  and  _29
REMARK   18  A    between atoms: _29  and  _30
REMARK   19  A    between atoms: _35  and  _36
REMARK   20  A    between atoms: _38  and  _40
REMARK   21  A    between atoms: _40  and  _41
REMARK   22  A    between atoms: _40  and  _43
REMARK   23  A    between atoms: _43  and  _44
REMARK   24  A    between atoms: _47  and  _49
REMARK   25  A    between atoms: _49  and  _50
REMARK   26  A    between atoms: _49  and  _52
REMARK   27  A    between atoms: _52  and  _53
REMARK   28  A    between atoms: _53  and  _54
REMARK   29  A    between atoms: _54  and  _55
REMARK   30  A    between atoms: _64  and  _66
REMARK   31  A    between atoms: _66  and  _67
REMARK   32  A    between atoms: _69  and  _71
REMARK   33  A    between atoms: _71  and  _72
REMARK   34  A    between atoms: _71  and  _74
REMARK   35  A    between atoms: _74  and  _75
REMARK   36  A    between atoms: _75  and  _76
REMARK   37  A    between atoms: _75  and  _77
REMARK   38  A    between atoms: _76  and  ZN_279
REMARK   39  A    between atoms: _80  and  _82
REMARK   40  A    between atoms: _82  and  _83
REMARK   41  A    between atoms: _82  and  _85
REMARK   42  A    between atoms: _85  and  _86
REMARK   43  A    between atoms: _91  and  _93
REMARK   44  A    between atoms: _93  and  _94
REMARK   45  A    between atoms: _93  and  _96
REMARK   46  A    between atoms: _96  and  _97
REMARK   47  A    between atoms: _97  and  _98
REMARK   48  A    between atoms: _101  and  _103
REMARK   49  A    between atoms: _103  and  _104
REMARK   50  A    between atoms: _103  and  _106
REMARK   51  A    between atoms: _106  and  _107
REMARK   52  A    between atoms: _112  and  _113
REMARK   53  A    between atoms: _115  and  _117
REMARK   54  A    between atoms: _117  and  _118
REMARK   55  A    between atoms: _117  and  _120
REMARK   56  A    between atoms: _120  and  _121
REMARK   57  A    between atoms: _125  and  ZN_279
REMARK   58  A    between atoms: _126  and  _128
REMARK   59  A    between atoms: _128  and  _129
REMARK   60  A    between atoms: _128  and  _131
REMARK   61  A    between atoms: _131  and  _132
REMARK   62  A    between atoms: _134  and  _136
REMARK   63  A    between atoms: _136  and  _137
REMARK   64  A    between atoms: _136  and  _139
REMARK   65  A    between atoms: _139  and  _140
REMARK   66  A    between atoms: _145  and  _147
REMARK   67  A    between atoms: _147  and  _148
REMARK   68  A    between atoms: _147  and  _150
REMARK   69  A    between atoms: _150  and  _151
REMARK   70  A    between atoms: _156  and  _158
REMARK   71  A    between atoms: _158  and  _159
REMARK   72  A    between atoms: _158  and  _161
REMARK   73  A    between atoms: _161  and  _162
REMARK   74  A    between atoms: _162  and  _163
REMARK   75  A    between atoms: _166  and  _168
REMARK   76  A    between atoms: _168  and  _169
REMARK   77  A    between atoms: _171  and  _173
REMARK   78  A    between atoms: _173  and  _174
REMARK   79  A    between atoms: _173  and  _176
REMARK   80  A    between atoms: _176  and  _177
REMARK   81  A    between atoms: _178  and  ZN_279
REMARK   82  A    between atoms: _182  and  _184
REMARK   83  A    between atoms: _184  and  _185
REMARK   84  A    between atoms: _184  and  _187
REMARK   85  A    between atoms: _190  and  _192
REMARK   86  A    between atoms: _192  and  _193
REMARK   87  A    between atoms: _192  and  _195
REMARK   88  A    between atoms: _195  and  _196
REMARK   89  A    between atoms: _201  and  _203
REMARK   90  A    between atoms: _203  and  _204
REMARK   91  A    between atoms: _206  and  _208
REMARK   92  A    between atoms: _208  and  _209
REMARK   93  A    between atoms: _208  and  _211
REMARK   94  A    between atoms: _211  and  _212
REMARK   95  A    between atoms: _217  and  _219
REMARK   96  A    between atoms: _219  and  _220
REMARK   97  A    between atoms: _219  and  _222
REMARK   98  A    between atoms: _222  and  _223
REMARK   99  A    between atoms: _228  and  _229
REMARK  100  A    between atoms: _231  and  _233
REMARK  101  A    between atoms: _233  and  _234
REMARK  102  A    between atoms: _233  and  _236
REMARK  103  A    between atoms: _239  and  _241
REMARK  104  A    between atoms: _241  and  _242
REMARK  105  A    between atoms: _241  and  _244
REMARK  106  A    between atoms: _244  and  _245
REMARK  107  A    between atoms: _248  and  _250
REMARK  108  A    between atoms: _250  and  _251
REMARK  109  A    between atoms: _250  and  _253
REMARK  110  A    between atoms: _253  and  _254
REMARK  111  A    between atoms: _254  and  _255
REMARK  112  A    between atoms: _255  and  _256
REMARK  113  A    between atoms: _265  and  _267
REMARK  114  A    between atoms: _267  and  _268
REMARK  115  A    between atoms: _267  and  _270
REMARK  116  A    between atoms: _270  and  _271
REMARK  117  A    between atoms: _276  and  _277
REMARK                            x       y       z     vdW  Elec       q    Type
REMARK                         _______ _______ _______ _____ _____    ______ ____
ROOT
ATOM      1  CA  GLY A   1     -71.285  25.407 -34.825  0.00  0.00    +0.156 C 
ENDROOT
BRANCH   1   2
ATOM      2  N   GLY A   1     -71.493  23.970 -34.758  0.00  0.00    -0.238 NA
ATOM      3  H   GLY A   1     -71.728  23.453 -35.630  0.00  0.00    +0.142 HD
ENDBRANCH   1   2
BRANCH   1   4
ATOM      4  C   GLY A   1     -72.542  26.205 -34.544  0.00  0.00    +0.226 C 
ATOM      5  O   GLY A   1     -72.775  27.229 -35.173  0.00  0.00    -0.287 OA
ENDBRANCH   1   4
TORSDOF 2
REMARK  Name = ../refined-set-2016/4dhl/4dhl_pocket.pdb
REMARK  117 active torsions:
REMARK  status: ('A' for Active; 'I' for Inactive)
REMARK    1  A    between atoms: _1  and  _3
REMARK    2  A    between atoms: _3  and  _4
REMARK    3  A    between atoms: _3  and  _6
REMARK    4  A    between atoms: _6  and  _7
REMARK    5  A    between atoms: _7  and  _9
REMARK    6  A    between atoms: _9  and  FE_280
REMARK    7  A    between atoms: _10  and  _12
REMARK    8  A    between atoms: _12  and  _13
REMARK    9  A    between atoms: _15  and  _17
REMARK   10  A    between atoms: _17  and  _18
REMARK   11  A    between atoms: _17  and  _20
REMARK   12  A    between atoms: _20  and  _21
REMARK   13  A    between atoms: _21  and  _23
REMARK   14  A    between atoms: _23  and  FE_280
REMARK   15  A    between atoms: _24  and  _26
REMARK   16  A    between atoms: _26  and  _27
REMARK   17  A    between atoms: _26  and  _29
REMARK   18  A    between atoms: _29  and  _30
REMARK   19  A    between atoms: _35  and  _36
REMARK   20  A    between atoms: _38  and  _40
REMARK   21  A    between atoms: _40  and  _41
REMARK   22  A    between atoms: _40  and  _43
REMARK   23  A    between atoms: _43  and  _44
REMARK   24  A    between atoms: _47  and  _49
REMARK   25  A    between atoms: _49  and  _50
REMARK   26  A    between atoms: _49  and  _52
REMARK   27  A    between atoms: _52  and  _53
REMARK   28  A    between atoms: _53  and  _54
REMARK   29  A    between atoms: _54  and  _55
REMARK   30  A    between atoms: _64  and  _66
REMARK   31  A    between atoms: _66  and  _67
REMARK   32  A    between atoms: _69  and  _71
REMARK   33  A    between atoms: _71  and  _72
REMARK   34  A    between atoms: _71  and  _74
REMARK   35  A    between atoms: _74  and  _75
REMARK   36  A    between atoms: _75  and  _76
REMARK   37  A    between atoms: _75  and  _77
REMARK   38  A    between atoms: _76  and  ZN_279
REMARK   39  A    between atoms: _80  and  _82
REMARK   40  A    between atoms: _82  and  _83
REMARK   41  A    between atoms: _82  and  _85
REMARK   42  A    between atoms: _85  and  _86
REMARK   43  A    between atoms: _91  and  _93
REMARK   44  A    between atoms: _93  and  _94
REMARK   45  A    between atoms: _93  and  _96
REMARK   46  A    between atoms: _96  and  _97
REMARK   47  A    between atoms: _97  and  _98
REMARK   48  A    between atoms: _101  and  _103
REMARK   49  A    between atoms: _103  and  _104
REMARK   50  A    between atoms: _103  and  _106
REMARK   51  A    between atoms: _106  and  _107
REMARK   52  A    between atoms: _112  and  _113
REMARK   53  A    between atoms: _115  and  _117
REMARK   54  A    between atoms: _117  and  _118
REMARK   55  A    between atoms: _117  and  _120
REMARK   56  A    between atoms: _120  and  _121
REMARK   57  A    between atoms: _125  and  ZN_279
REMARK   58  A    between atoms: _126  and  _128
REMARK   59  A    between atoms: _128  and  _129
REMARK   60  A    between atoms: _128  and  _131
REMARK   61  A    between atoms: _131  and  _132
REMARK   62  A    between atoms: _134  and  _136
REMARK   63  A    between atoms: _136  and  _137
REMARK   64  A    between atoms: _136  and  _139
REMARK   65  A    between atoms: _139  and  _140
REMARK   66  A    between atoms: _145  and  _147
REMARK   67  A    between atoms: _147  and  _148
REMARK   68  A    between atoms: _147  and  _150
REMARK   69  A    between atoms: _150  and  _151
REMARK   70  A    between atoms: _156  and  _158
REMARK   71  A    between atoms: _158  and  _159
REMARK   72  A    between atoms: _158  and  _161
REMARK   73  A    between atoms: _161  and  _162
REMARK   74  A    between atoms: _162  and  _163
REMARK   75  A    between atoms: _166  and  _168
REMARK   76  A    between atoms: _168  and  _169
REMARK   77  A    between atoms: _171  and  _173
REMARK   78  A    between atoms: _173  and  _174
REMARK   79  A    between atoms: _173  and  _176
REMARK   80  A    between atoms: _176  and  _177
REMARK   81  A    between atoms: _178  and  ZN_279
REMARK   82  A    between atoms: _182  and  _184
REMARK   83  A    between atoms: _184  and  _185
REMARK   84  A    between atoms: _184  and  _187
REMARK   85  A    between atoms: _190  and  _192
REMARK   86  A    between atoms: _192  and  _193
REMARK   87  A    between atoms: _192  and  _195
REMARK   88  A    between atoms: _195  and  _196
REMARK   89  A    between atoms: _201  and  _203
REMARK   90  A    between atoms: _203  and  _204
REMARK   91  A    between atoms: _206  and  _208
REMARK   92  A    between atoms: _208  and  _209
REMARK   93  A    between atoms: _208  and  _211
REMARK   94  A    between atoms: _211  and  _212
REMARK   95  A    between atoms: _217  and  _219
REMARK   96  A    between atoms: _219  and  _220
REMARK   97  A    between atoms: _219  and  _222
REMARK   98  A    between atoms: _222  and  _223
REMARK   99  A    between atoms: _228  and  _229
REMARK  100  A    between atoms: _231  and  _233
REMARK  101  A    between atoms: _233  and  _234
REMARK  102  A    between atoms: _233  and  _236
REMARK  103  A    between atoms: _239  and  _241
REMARK  104  A    between atoms: _241  and  _242
REMARK  105  A    between atoms: _241  and  _244
REMARK  106  A    between atoms: _244  and  _245
REMARK  107  A    between atoms: _248  and  _250
REMARK  108  A    between atoms: _250  and  _251
REMARK  109  A    between atoms: _250  and  _253
REMARK  110  A    between atoms: _253  and  _254
REMARK  111  A    between atoms: _254  and  _255
REMARK  112  A    between atoms: _255  and  _256
REMARK  113  A    between atoms: _265  and  _267
REMARK  114  A    between atoms: _267  and  _268
REMARK  115  A    between atoms: _267  and  _270
REMARK  116  A    between atoms: _270  and  _271
REMARK  117  A    between atoms: _276  and  _277
REMARK                            x       y       z     vdW  Elec       q    Type
REMARK                         _______ _______ _______ _____ _____    ______ ____
ROOT
ATOM      1  C   ASN A   1     -73.710  34.827 -33.137  0.00  0.00    +0.239 C 
ATOM      2  O   ASN A   1     -73.742  35.291 -31.989  0.00  0.00    -0.274 OA
ATOM      3  N   TYR A   2     -74.184  35.494 -34.183  0.00  0.00    -0.298 N 
ATOM      4  H   TYR A   2     -74.119  35.080 -35.135  0.00  0.00    +0.150 HD
ENDROOT
BRANCH   1   5
ATOM      5  CA  ASN A   1     -73.116  33.432 -33.394  0.00  0.00    +0.154 C 
BRANCH   5   6
ATOM      6  N   ASN A   1     -73.704  32.419 -32.527  0.00  0.00    -0.238 NA
ATOM      7  H   ASN A   1     -73.082  31.691 -32.121  0.00  0.00    +0.142 HD
ENDBRANCH   5   6
BRANCH   5   8
ATOM      8  CB  ASN A   1     -73.117  33.004 -34.888  0.00  0.00    +0.111 C 
BRANCH   8   9
ATOM      9  CG  ASN A   1     -74.517  32.811 -35.462  0.00  0.00    +0.221 C 
ATOM     10  ND2 ASN A   1     -75.012  31.575 -35.448  0.00  0.00    -0.329 N 
ATOM     11 HD21 ASN A   1     -74.453  30.795 -35.047  0.00  0.00    +0.145 HD
ATOM     12 HD22 ASN A   1     -75.958  31.389 -35.838  0.00  0.00    +0.145 HD
ATOM     13  OD1 ASN A   1     -75.137  33.764 -35.924  0.00  0.00    -0.275 OA
ENDBRANCH   8   9
ENDBRANCH   5   8
ENDBRANCH   1   5
BRANCH   3  14
ATOM     14  CA  TYR A   2     -74.793  36.802 -34.001  0.00  0.00    +0.141 C 
BRANCH  14  15
ATOM     15  C   TYR A   2     -76.315  36.697 -34.097  0.00  0.00    +0.227 C 
ATOM     16  O   TYR A   2     -76.983  37.664 -34.445  0.00  0.00    -0.286 OA
ENDBRANCH  14  15
BRANCH  14  17
ATOM     17  CB  TYR A   2     -74.239  37.798 -35.023  0.00  0.00    +0.054 C 
BRANCH  17  18
ATOM     18  CG  TYR A   2     -74.189  37.223 -36.416  0.00  0.00    -0.020 A 
ATOM     19  CD2 TYR A   2     -73.150  36.376 -36.801  0.00  0.00    -0.001 A 
ATOM     20  CE2 TYR A   2     -73.099  35.828 -38.076  0.00  0.00    +0.036 A 
ATOM     21  CZ  TYR A   2     -74.096  36.124 -38.988  0.00  0.00    +0.134 A 
ATOM     22  CE1 TYR A   2     -75.139  36.965 -38.632  0.00  0.00    +0.036 A 
ATOM     23  CD1 TYR A   2     -75.183  37.505 -37.343  0.00  0.00    -0.001 A 
BRANCH  21  24
ATOM     24  OH  TYR A   2     -74.048  35.580 -40.255  0.00  0.00    -0.506 OA
ATOM     25  HH  TYR A   2     -73.243  35.009 -40.337  0.00  0.00    +0.292 HD
ENDBRANCH  21  24
ENDBRANCH  17  18
ENDBRANCH  14  17
ENDBRANCH   3  14
TORSDOF 9
REMARK  Name = ../refined-set-2016/4dhl/4dhl_pocket.pdb
REMARK  117 active torsions:
REMARK  status: ('A' for Active; 'I' for Inactive)
REMARK    1  A    between atoms: _1  and  _3
REMARK    2  A    between atoms: _3  and  _4
REMARK    3  A    between atoms: _3  and  _6
REMARK    4  A    between atoms: _6  and  _7
REMARK    5  A    between atoms: _7  and  _9
REMARK    6  A    between atoms: _9  and  FE_280
REMARK    7  A    between atoms: _10  and  _12
REMARK    8  A    between atoms: _12  and  _13
REMARK    9  A    between atoms: _15  and  _17
REMARK   10  A    between atoms: _17  and  _18
REMARK   11  A    between atoms: _17  and  _20
REMARK   12  A    between atoms: _20  and  _21
REMARK   13  A    between atoms: _21  and  _23
REMARK   14  A    between atoms: _23  and  FE_280
REMARK   15  A    between atoms: _24  and  _26
REMARK   16  A    between atoms: _26  and  _27
REMARK   17  A    between atoms: _26  and  _29
REMARK   18  A    between atoms: _29  and  _30
REMARK   19  A    between atoms: _35  and  _36
REMARK   20  A    between atoms: _38  and  _40
REMARK   21  A    between atoms: _40  and  _41
REMARK   22  A    between atoms: _40  and  _43
REMARK   23  A    between atoms: _43  and  _44
REMARK   24  A    between atoms: _47  and  _49
REMARK   25  A    between atoms: _49  and  _50
REMARK   26  A    between atoms: _49  and  _52
REMARK   27  A    between atoms: _52  and  _53
REMARK   28  A    between atoms: _53  and  _54
REMARK   29  A    between atoms: _54  and  _55
REMARK   30  A    between atoms: _64  and  _66
REMARK   31  A    between atoms: _66  and  _67
REMARK   32  A    between atoms: _69  and  _71
REMARK   33  A    between atoms: _71  and  _72
REMARK   34  A    between atoms: _71  and  _74
REMARK   35  A    between atoms: _74  and  _75
REMARK   36  A    between atoms: _75  and  _76
REMARK   37  A    between atoms: _75  and  _77
REMARK   38  A    between atoms: _76  and  ZN_279
REMARK   39  A    between atoms: _80  and  _82
REMARK   40  A    between atoms: _82  and  _83
REMARK   41  A    between atoms: _82  and  _85
REMARK   42  A    between atoms: _85  and  _86
REMARK   43  A    between atoms: _91  and  _93
REMARK   44  A    between atoms: _93  and  _94
REMARK   45  A    between atoms: _93  and  _96
REMARK   46  A    between atoms: _96  and  _97
REMARK   47  A    between atoms: _97  and  _98
REMARK   48  A    between atoms: _101  and  _103
REMARK   49  A    between atoms: _103  and  _104
REMARK   50  A    between atoms: _103  and  _106
REMARK   51  A    between atoms: _106  and  _107
REMARK   52  A    between atoms: _112  and  _113
REMARK   53  A    between atoms: _115  and  _117
REMARK   54  A    between atoms: _117  and  _118
REMARK   55  A    between atoms: _117  and  _120
REMARK   56  A    between atoms: _120  and  _121
REMARK   57  A    between atoms: _125  and  ZN_279
REMARK   58  A    between atoms: _126  and  _128
REMARK   59  A    between atoms: _128  and  _129
REMARK   60  A    between atoms: _128  and  _131
REMARK   61  A    between atoms: _131  and  _132
REMARK   62  A    between atoms: _134  and  _136
REMARK   63  A    between atoms: _136  and  _137
REMARK   64  A    between atoms: _136  and  _139
REMARK   65  A    between atoms: _139  and  _140
REMARK   66  A    between atoms: _145  and  _147
REMARK   67  A    between atoms: _147  and  _148
REMARK   68  A    between atoms: _147  and  _150
REMARK   69  A    between atoms: _150  and  _151
REMARK   70  A    between atoms: _156  and  _158
REMARK   71  A    between atoms: _158  and  _159
REMARK   72  A    between atoms: _158  and  _161
REMARK   73  A    between atoms: _161  and  _162
REMARK   74  A    between atoms: _162  and  _163
REMARK   75  A    between atoms: _166  and  _168
REMARK   76  A    between atoms: _168  and  _169
REMARK   77  A    between atoms: _171  and  _173
REMARK   78  A    between atoms: _173  and  _174
REMARK   79  A    between atoms: _173  and  _176
REMARK   80  A    between atoms: _176  and  _177
REMARK   81  A    between atoms: _178  and  ZN_279
REMARK   82  A    between atoms: _182  and  _184
REMARK   83  A    between atoms: _184  and  _185
REMARK   84  A    between atoms: _184  and  _187
REMARK   85  A    between atoms: _190  and  _192
REMARK   86  A    between atoms: _192  and  _193
REMARK   87  A    between atoms: _192  and  _195
REMARK   88  A    between atoms: _195  and  _196
REMARK   89  A    between atoms: _201  and  _203
REMARK   90  A    between atoms: _203  and  _204
REMARK   91  A    between atoms: _206  and  _208
REMARK   92  A    between atoms: _208  and  _209
REMARK   93  A    between atoms: _208  and  _211
REMARK   94  A    between atoms: _211  and  _212
REMARK   95  A    between atoms: _217  and  _219
REMARK   96  A    between atoms: _219  and  _220
REMARK   97  A    between atoms: _219  and  _222
REMARK   98  A    between atoms: _222  and  _223
REMARK   99  A    between atoms: _228  and  _229
REMARK  100  A    between atoms: _231  and  _233
REMARK  101  A    between atoms: _233  and  _234
REMARK  102  A    between atoms: _233  and  _236
REMARK  103  A    between atoms: _239  and  _241
REMARK  104  A    between atoms: _241  and  _242
REMARK  105  A    between atoms: _241  and  _244
REMARK  106  A    between atoms: _244  and  _245
REMARK  107  A    between atoms: _248  and  _250
REMARK  108  A    between atoms: _250  and  _251
REMARK  109  A    between atoms: _250  and  _253
REMARK  110  A    between atoms: _253  and  _254
REMARK  111  A    between atoms: _254  and  _255
REMARK  112  A    between atoms: _255  and  _256
REMARK  113  A    between atoms: _265  and  _267
REMARK  114  A    between atoms: _267  and  _268
REMARK  115  A    between atoms: _267  and  _270
REMARK  116  A    between atoms: _270  and  _271
REMARK  117  A    between atoms: _276  and  _277
REMARK                            x       y       z     vdW  Elec       q    Type
REMARK                         _______ _______ _______ _____ _____    ______ ____
ROOT
ATOM      1  CA  VAL A   1     -78.683  33.526 -37.039  0.00  0.00    +0.133 C 
ENDROOT
BRANCH   1   2
ATOM      2  CB  VAL A   1     -78.134  34.265 -38.274  0.00  0.00    +0.023 C 
ATOM      3  CG2 VAL A   1     -78.352  35.764 -38.129  0.00  0.00    +0.002 C 
ATOM      4  CG1 VAL A   1     -78.817  33.771 -39.530  0.00  0.00    +0.002 C 
ENDBRANCH   1   2
BRANCH   1   5
ATOM      5  N   VAL A   1     -78.146  34.104 -35.813  0.00  0.00    -0.239 NA
ATOM      6  H   VAL A   1     -77.121  34.073 -35.637  0.00  0.00    +0.142 HD
ENDBRANCH   1   5
BRANCH   1   7
ATOM      7  C   VAL A   1     -78.435  32.013 -37.159  0.00  0.00    +0.224 C 
ATOM      8  O   VAL A   1     -77.316  31.540 -37.001  0.00  0.00    -0.287 OA
ENDBRANCH   1   7
TORSDOF 3
REMARK  Name = ../refined-set-2016/4dhl/4dhl_pocket.pdb
REMARK  117 active torsions:
REMARK  status: ('A' for Active; 'I' for Inactive)
REMARK    1  A    between atoms: _1  and  _3
REMARK    2  A    between atoms: _3  and  _4
REMARK    3  A    between atoms: _3  and  _6
REMARK    4  A    between atoms: _6  and  _7
REMARK    5  A    between atoms: _7  and  _9
REMARK    6  A    between atoms: _9  and  FE_280
REMARK    7  A    between atoms: _10  and  _12
REMARK    8  A    between atoms: _12  and  _13
REMARK    9  A    between atoms: _15  and  _17
REMARK   10  A    between atoms: _17  and  _18
REMARK   11  A    between atoms: _17  and  _20
REMARK   12  A    between atoms: _20  and  _21
REMARK   13  A    between atoms: _21  and  _23
REMARK   14  A    between atoms: _23  and  FE_280
REMARK   15  A    between atoms: _24  and  _26
REMARK   16  A    between atoms: _26  and  _27
REMARK   17  A    between atoms: _26  and  _29
REMARK   18  A    between atoms: _29  and  _30
REMARK   19  A    between atoms: _35  and  _36
REMARK   20  A    between atoms: _38  and  _40
REMARK   21  A    between atoms: _40  and  _41
REMARK   22  A    between atoms: _40  and  _43
REMARK   23  A    between atoms: _43  and  _44
REMARK   24  A    between atoms: _47  and  _49
REMARK   25  A    between atoms: _49  and  _50
REMARK   26  A    between atoms: _49  and  _52
REMARK   27  A    between atoms: _52  and  _53
REMARK   28  A    between atoms: _53  and  _54
REMARK   29  A    between atoms: _54  and  _55
REMARK   30  A    between atoms: _64  and  _66
REMARK   31  A    between atoms: _66  and  _67
REMARK   32  A    between atoms: _69  and  _71
REMARK   33  A    between atoms: _71  and  _72
REMARK   34  A    between atoms: _71  and  _74
REMARK   35  A    between atoms: _74  and  _75
REMARK   36  A    between atoms: _75  and  _76
REMARK   37  A    between atoms: _75  and  _77
REMARK   38  A    between atoms: _76  and  ZN_279
REMARK   39  A    between atoms: _80  and  _82
REMARK   40  A    between atoms: _82  and  _83
REMARK   41  A    between atoms: _82  and  _85
REMARK   42  A    between atoms: _85  and  _86
REMARK   43  A    between atoms: _91  and  _93
REMARK   44  A    between atoms: _93  and  _94
REMARK   45  A    between atoms: _93  and  _96
REMARK   46  A    between atoms: _96  and  _97
REMARK   47  A    between atoms: _97  and  _98
REMARK   48  A    between atoms: _101  and  _103
REMARK   49  A    between atoms: _103  and  _104
REMARK   50  A    between atoms: _103  and  _106
REMARK   51  A    between atoms: _106  and  _107
REMARK   52  A    between atoms: _112  and  _113
REMARK   53  A    between atoms: _115  and  _117
REMARK   54  A    between atoms: _117  and  _118
REMARK   55  A    between atoms: _117  and  _120
REMARK   56  A    between atoms: _120  and  _121
REMARK   57  A    between atoms: _125  and  ZN_279
REMARK   58  A    between atoms: _126  and  _128
REMARK   59  A    between atoms: _128  and  _129
REMARK   60  A    between atoms: _128  and  _131
REMARK   61  A    between atoms: _131  and  _132
REMARK   62  A    between atoms: _134  and  _136
REMARK   63  A    between atoms: _136  and  _137
REMARK   64  A    between atoms: _136  and  _139
REMARK   65  A    between atoms: _139  and  _140
REMARK   66  A    between atoms: _145  and  _147
REMARK   67  A    between atoms: _147  and  _148
REMARK   68  A    between atoms: _147  and  _150
REMARK   69  A    between atoms: _150  and  _151
REMARK   70  A    between atoms: _156  and  _158
REMARK   71  A    between atoms: _158  and  _159
REMARK   72  A    between atoms: _158  and  _161
REMARK   73  A    between atoms: _161  and  _162
REMARK   74  A    between atoms: _162  and  _163
REMARK   75  A    between atoms: _166  and  _168
REMARK   76  A    between atoms: _168  and  _169
REMARK   77  A    between atoms: _171  and  _173
REMARK   78  A    between atoms: _173  and  _174
REMARK   79  A    between atoms: _173  and  _176
REMARK   80  A    between atoms: _176  and  _177
REMARK   81  A    between atoms: _178  and  ZN_279
REMARK   82  A    between atoms: _182  and  _184
REMARK   83  A    between atoms: _184  and  _185
REMARK   84  A    between atoms: _184  and  _187
REMARK   85  A    between atoms: _190  and  _192
REMARK   86  A    between atoms: _192  and  _193
REMARK   87  A    between atoms: _192  and  _195
REMARK   88  A    between atoms: _195  and  _196
REMARK   89  A    between atoms: _201  and  _203
REMARK   90  A    between atoms: _203  and  _204
REMARK   91  A    between atoms: _206  and  _208
REMARK   92  A    between atoms: _208  and  _209
REMARK   93  A    between atoms: _208  and  _211
REMARK   94  A    between atoms: _211  and  _212
REMARK   95  A    between atoms: _217  and  _219
REMARK   96  A    between atoms: _219  and  _220
REMARK   97  A    between atoms: _219  and  _222
REMARK   98  A    between atoms: _222  and  _223
REMARK   99  A    between atoms: _228  and  _229
REMARK  100  A    between atoms: _231  and  _233
REMARK  101  A    between atoms: _233  and  _234
REMARK  102  A    between atoms: _233  and  _236
REMARK  103  A    between atoms: _239  and  _241
REMARK  104  A    between atoms: _241  and  _242
REMARK  105  A    between atoms: _241  and  _244
REMARK  106  A    between atoms: _244  and  _245
REMARK  107  A    between atoms: _248  and  _250
REMARK  108  A    between atoms: _250  and  _251
REMARK  109  A    between atoms: _250  and  _253
REMARK  110  A    between atoms: _253  and  _254
REMARK  111  A    between atoms: _254  and  _255
REMARK  112  A    between atoms: _255  and  _256
REMARK  113  A    between atoms: _265  and  _267
REMARK  114  A    between atoms: _267  and  _268
REMARK  115  A    between atoms: _267  and  _270
REMARK  116  A    between atoms: _270  and  _271
REMARK  117  A    between atoms: _276  and  _277
REMARK                            x       y       z     vdW  Elec       q    Type
REMARK                         _______ _______ _______ _____ _____    ______ ____
ROOT
ATOM      1  CA  ASP A   1     -78.536  28.015 -40.880  0.00  0.00    +0.144 C 
ENDROOT
BRANCH   1   2
ATOM      2  N   ASP A   1     -78.487  28.507 -39.505  0.00  0.00    -0.239 NA
ATOM      3  H   ASP A   1     -77.799  28.109 -38.835  0.00  0.00    +0.142 HD
ENDBRANCH   1   2
BRANCH   1   4
ATOM      4  C   ASP A   1     -79.617  26.945 -41.017  0.00  0.00    +0.225 C 
ATOM      5  O   ASP A   1     -79.444  25.810 -40.577  0.00  0.00    -0.287 OA
ENDBRANCH   1   4
BRANCH   1   6
ATOM      6  CB  ASP A   1     -77.175  27.479 -41.337  0.00  0.00    +0.139 C 
BRANCH   6   7
ATOM      7  CG  ASP A   1     -76.168  28.587 -41.572  0.00  0.00    +0.367 C 
ATOM      8  OD2 ASP A   1     -74.990  28.433 -41.199  0.00  0.00    -0.246 OA
ATOM      9  OD1 ASP A   1     -76.562  29.631 -42.116  0.00  0.00    -0.246 OA
ENDBRANCH   6   7
ENDBRANCH   1   6
TORSDOF 4
REMARK  Name = ../refined-set-2016/4dhl/4dhl_pocket.pdb
REMARK  117 active torsions:
REMARK  status: ('A' for Active; 'I' for Inactive)
REMARK    1  A    between atoms: _1  and  _3
REMARK    2  A    between atoms: _3  and  _4
REMARK    3  A    between atoms: _3  and  _6
REMARK    4  A    between atoms: _6  and  _7
REMARK    5  A    between atoms: _7  and  _9
REMARK    6  A    between atoms: _9  and  FE_280
REMARK    7  A    between atoms: _10  and  _12
REMARK    8  A    between atoms: _12  and  _13
REMARK    9  A    between atoms: _15  and  _17
REMARK   10  A    between atoms: _17  and  _18
REMARK   11  A    between atoms: _17  and  _20
REMARK   12  A    between atoms: _20  and  _21
REMARK   13  A    between atoms: _21  and  _23
REMARK   14  A    between atoms: _23  and  FE_280
REMARK   15  A    between atoms: _24  and  _26
REMARK   16  A    between atoms: _26  and  _27
REMARK   17  A    between atoms: _26  and  _29
REMARK   18  A    between atoms: _29  and  _30
REMARK   19  A    between atoms: _35  and  _36
REMARK   20  A    between atoms: _38  and  _40
REMARK   21  A    between atoms: _40  and  _41
REMARK   22  A    between atoms: _40  and  _43
REMARK   23  A    between atoms: _43  and  _44
REMARK   24  A    between atoms: _47  and  _49
REMARK   25  A    between atoms: _49  and  _50
REMARK   26  A    between atoms: _49  and  _52
REMARK   27  A    between atoms: _52  and  _53
REMARK   28  A    between atoms: _53  and  _54
REMARK   29  A    between atoms: _54  and  _55
REMARK   30  A    between atoms: _64  and  _66
REMARK   31  A    between atoms: _66  and  _67
REMARK   32  A    between atoms: _69  and  _71
REMARK   33  A    between atoms: _71  and  _72
REMARK   34  A    between atoms: _71  and  _74
REMARK   35  A    between atoms: _74  and  _75
REMARK   36  A    between atoms: _75  and  _76
REMARK   37  A    between atoms: _75  and  _77
REMARK   38  A    between atoms: _76  and  ZN_279
REMARK   39  A    between atoms: _80  and  _82
REMARK   40  A    between atoms: _82  and  _83
REMARK   41  A    between atoms: _82  and  _85
REMARK   42  A    between atoms: _85  and  _86
REMARK   43  A    between atoms: _91  and  _93
REMARK   44  A    between atoms: _93  and  _94
REMARK   45  A    between atoms: _93  and  _96
REMARK   46  A    between atoms: _96  and  _97
REMARK   47  A    between atoms: _97  and  _98
REMARK   48  A    between atoms: _101  and  _103
REMARK   49  A    between atoms: _103  and  _104
REMARK   50  A    between atoms: _103  and  _106
REMARK   51  A    between atoms: _106  and  _107
REMARK   52  A    between atoms: _112  and  _113
REMARK   53  A    between atoms: _115  and  _117
REMARK   54  A    between atoms: _117  and  _118
REMARK   55  A    between atoms: _117  and  _120
REMARK   56  A    between atoms: _120  and  _121
REMARK   57  A    between atoms: _125  and  ZN_279
REMARK   58  A    between atoms: _126  and  _128
REMARK   59  A    between atoms: _128  and  _129
REMARK   60  A    between atoms: _128  and  _131
REMARK   61  A    between atoms: _131  and  _132
REMARK   62  A    between atoms: _134  and  _136
REMARK   63  A    between atoms: _136  and  _137
REMARK   64  A    between atoms: _136  and  _139
REMARK   65  A    between atoms: _139  and  _140
REMARK   66  A    between atoms: _145  and  _147
REMARK   67  A    between atoms: _147  and  _148
REMARK   68  A    between atoms: _147  and  _150
REMARK   69  A    between atoms: _150  and  _151
REMARK   70  A    between atoms: _156  and  _158
REMARK   71  A    between atoms: _158  and  _159
REMARK   72  A    between atoms: _158  and  _161
REMARK   73  A    between atoms: _161  and  _162
REMARK   74  A    between atoms: _162  and  _163
REMARK   75  A    between atoms: _166  and  _168
REMARK   76  A    between atoms: _168  and  _169
REMARK   77  A    between atoms: _171  and  _173
REMARK   78  A    between atoms: _173  and  _174
REMARK   79  A    between atoms: _173  and  _176
REMARK   80  A    between atoms: _176  and  _177
REMARK   81  A    between atoms: _178  and  ZN_279
REMARK   82  A    between atoms: _182  and  _184
REMARK   83  A    between atoms: _184  and  _185
REMARK   84  A    between atoms: _184  and  _187
REMARK   85  A    between atoms: _190  and  _192
REMARK   86  A    between atoms: _192  and  _193
REMARK   87  A    between atoms: _192  and  _195
REMARK   88  A    between atoms: _195  and  _196
REMARK   89  A    between atoms: _201  and  _203
REMARK   90  A    between atoms: _203  and  _204
REMARK   91  A    between atoms: _206  and  _208
REMARK   92  A    between atoms: _208  and  _209
REMARK   93  A    between atoms: _208  and  _211
REMARK   94  A    between atoms: _211  and  _212
REMARK   95  A    between atoms: _217  and  _219
REMARK   96  A    between atoms: _219  and  _220
REMARK   97  A    between atoms: _219  and  _222
REMARK   98  A    between atoms: _222  and  _223
REMARK   99  A    between atoms: _228  and  _229
REMARK  100  A    between atoms: _231  and  _233
REMARK  101  A    between atoms: _233  and  _234
REMARK  102  A    between atoms: _233  and  _236
REMARK  103  A    between atoms: _239  and  _241
REMARK  104  A    between atoms: _241  and  _242
REMARK  105  A    between atoms: _241  and  _244
REMARK  106  A    between atoms: _244  and  _245
REMARK  107  A    between atoms: _248  and  _250
REMARK  108  A    between atoms: _250  and  _251
REMARK  109  A    between atoms: _250  and  _253
REMARK  110  A    between atoms: _253  and  _254
REMARK  111  A    between atoms: _254  and  _255
REMARK  112  A    between atoms: _255  and  _256
REMARK  113  A    between atoms: _265  and  _267
REMARK  114  A    between atoms: _267  and  _268
REMARK  115  A    between atoms: _267  and  _270
REMARK  116  A    between atoms: _270  and  _271
REMARK  117  A    between atoms: _276  and  _277
REMARK                            x       y       z     vdW  Elec       q    Type
REMARK                         _______ _______ _______ _____ _____    ______ ____
ROOT
ATOM      1  NE  ARG A   1     -66.506  31.590 -49.478  0.00  0.00    -0.265 N 
ATOM      2  CZ  ARG A   1     -67.366  32.379 -48.842  0.00  0.00    +0.342 C 
ATOM      3  NH2 ARG A   1     -67.481  32.307 -47.517  0.00  0.00    -0.292 N 
ATOM      4 HH21 ARG A   1     -66.898  31.634 -46.980  0.00  0.00    +0.255 HD
ATOM      5 HH22 ARG A   1     -68.154  32.924 -47.019  0.00  0.00    +0.255 HD
ATOM      6  NH1 ARG A   1     -68.109  33.240 -49.529  0.00  0.00    -0.292 N 
ATOM      7 HH11 ARG A   1     -68.782  33.858 -49.032  0.00  0.00    +0.255 HD
ATOM      8 HH12 ARG A   1     -68.017  33.296 -50.563  0.00  0.00    +0.255 HD
ATOM      9  HE  ARG A   1     -66.446  31.668 -50.513  0.00  0.00    +0.259 HD
ENDROOT
BRANCH   1  10
ATOM     10  CD  ARG A   1     -65.641  30.620 -48.813  0.00  0.00    +0.174 C 
BRANCH  10  11
ATOM     11  CG  ARG A   1     -64.276  31.209 -48.499  0.00  0.00    +0.045 C 
BRANCH  11  12
ATOM     12  CB  ARG A   1     -63.248  30.107 -48.308  0.00  0.00    +0.029 C 
BRANCH  12  13
ATOM     13  CA  ARG A   1     -61.793  30.576 -48.431  0.00  0.00    +0.133 C 
BRANCH  13  14
ATOM     14  N   ARG A   1     -60.891  29.436 -48.340  0.00  0.00    -0.239 NA
ATOM     15  H   ARG A   1     -61.293  28.477 -48.310  0.00  0.00    +0.142 HD
ENDBRANCH  13  14
BRANCH  13  16
ATOM     16  C   ARG A   1     -61.498  31.597 -47.333  0.00  0.00    +0.224 C 
ATOM     17  O   ARG A   1     -61.491  31.260 -46.147  0.00  0.00    -0.287 OA
ENDBRANCH  13  16
ENDBRANCH  12  13
ENDBRANCH  11  12
ENDBRANCH  10  11
ENDBRANCH   1  10
TORSDOF 6
REMARK  Name = ../refined-set-2016/4dhl/4dhl_pocket.pdb
REMARK  117 active torsions:
REMARK  status: ('A' for Active; 'I' for Inactive)
REMARK    1  A    between atoms: _1  and  _3
REMARK    2  A    between atoms: _3  and  _4
REMARK    3  A    between atoms: _3  and  _6
REMARK    4  A    between atoms: _6  and  _7
REMARK    5  A    between atoms: _7  and  _9
REMARK    6  A    between atoms: _9  and  FE_280
REMARK    7  A    between atoms: _10  and  _12
REMARK    8  A    between atoms: _12  and  _13
REMARK    9  A    between atoms: _15  and  _17
REMARK   10  A    between atoms: _17  and  _18
REMARK   11  A    between atoms: _17  and  _20
REMARK   12  A    between atoms: _20  and  _21
REMARK   13  A    between atoms: _21  and  _23
REMARK   14  A    between atoms: _23  and  FE_280
REMARK   15  A    between atoms: _24  and  _26
REMARK   16  A    between atoms: _26  and  _27
REMARK   17  A    between atoms: _26  and  _29
REMARK   18  A    between atoms: _29  and  _30
REMARK   19  A    between atoms: _35  and  _36
REMARK   20  A    between atoms: _38  and  _40
REMARK   21  A    between atoms: _40  and  _41
REMARK   22  A    between atoms: _40  and  _43
REMARK   23  A    between atoms: _43  and  _44
REMARK   24  A    between atoms: _47  and  _49
REMARK   25  A    between atoms: _49  and  _50
REMARK   26  A    between atoms: _49  and  _52
REMARK   27  A    between atoms: _52  and  _53
REMARK   28  A    between atoms: _53  and  _54
REMARK   29  A    between atoms: _54  and  _55
REMARK   30  A    between atoms: _64  and  _66
REMARK   31  A    between atoms: _66  and  _67
REMARK   32  A    between atoms: _69  and  _71
REMARK   33  A    between atoms: _71  and  _72
REMARK   34  A    between atoms: _71  and  _74
REMARK   35  A    between atoms: _74  and  _75
REMARK   36  A    between atoms: _75  and  _76
REMARK   37  A    between atoms: _75  and  _77
REMARK   38  A    between atoms: _76  and  ZN_279
REMARK   39  A    between atoms: _80  and  _82
REMARK   40  A    between atoms: _82  and  _83
REMARK   41  A    between atoms: _82  and  _85
REMARK   42  A    between atoms: _85  and  _86
REMARK   43  A    between atoms: _91  and  _93
REMARK   44  A    between atoms: _93  and  _94
REMARK   45  A    between atoms: _93  and  _96
REMARK   46  A    between atoms: _96  and  _97
REMARK   47  A    between atoms: _97  and  _98
REMARK   48  A    between atoms: _101  and  _103
REMARK   49  A    between atoms: _103  and  _104
REMARK   50  A    between atoms: _103  and  _106
REMARK   51  A    between atoms: _106  and  _107
REMARK   52  A    between atoms: _112  and  _113
REMARK   53  A    between atoms: _115  and  _117
REMARK   54  A    between atoms: _117  and  _118
REMARK   55  A    between atoms: _117  and  _120
REMARK   56  A    between atoms: _120  and  _121
REMARK   57  A    between atoms: _125  and  ZN_279
REMARK   58  A    between atoms: _126  and  _128
REMARK   59  A    between atoms: _128  and  _129
REMARK   60  A    between atoms: _128  and  _131
REMARK   61  A    between atoms: _131  and  _132
REMARK   62  A    between atoms: _134  and  _136
REMARK   63  A    between atoms: _136  and  _137
REMARK   64  A    between atoms: _136  and  _139
REMARK   65  A    between atoms: _139  and  _140
REMARK   66  A    between atoms: _145  and  _147
REMARK   67  A    between atoms: _147  and  _148
REMARK   68  A    between atoms: _147  and  _150
REMARK   69  A    between atoms: _150  and  _151
REMARK   70  A    between atoms: _156  and  _158
REMARK   71  A    between atoms: _158  and  _159
REMARK   72  A    between atoms: _158  and  _161
REMARK   73  A    between atoms: _161  and  _162
REMARK   74  A    between atoms: _162  and  _163
REMARK   75  A    between atoms: _166  and  _168
REMARK   76  A    between atoms: _168  and  _169
REMARK   77  A    between atoms: _171  and  _173
REMARK   78  A    between atoms: _173  and  _174
REMARK   79  A    between atoms: _173  and  _176
REMARK   80  A    between atoms: _176  and  _177
REMARK   81  A    between atoms: _178  and  ZN_279
REMARK   82  A    between atoms: _182  and  _184
REMARK   83  A    between atoms: _184  and  _185
REMARK   84  A    between atoms: _184  and  _187
REMARK   85  A    between atoms: _190  and  _192
REMARK   86  A    between atoms: _192  and  _193
REMARK   87  A    between atoms: _192  and  _195
REMARK   88  A    between atoms: _195  and  _196
REMARK   89  A    between atoms: _201  and  _203
REMARK   90  A    between atoms: _203  and  _204
REMARK   91  A    between atoms: _206  and  _208
REMARK   92  A    between atoms: _208  and  _209
REMARK   93  A    between atoms: _208  and  _211
REMARK   94  A    between atoms: _211  and  _212
REMARK   95  A    between atoms: _217  and  _219
REMARK   96  A    between atoms: _219  and  _220
REMARK   97  A    between atoms: _219  and  _222
REMARK   98  A    between atoms: _222  and  _223
REMARK   99  A    between atoms: _228  and  _229
REMARK  100  A    between atoms: _231  and  _233
REMARK  101  A    between atoms: _233  and  _234
REMARK  102  A    between atoms: _233  and  _236
REMARK  103  A    between atoms: _239  and  _241
REMARK  104  A    between atoms: _241  and  _242
REMARK  105  A    between atoms: _241  and  _244
REMARK  106  A    between atoms: _244  and  _245
REMARK  107  A    between atoms: _248  and  _250
REMARK  108  A    between atoms: _250  and  _251
REMARK  109  A    between atoms: _250  and  _253
REMARK  110  A    between atoms: _253  and  _254
REMARK  111  A    between atoms: _254  and  _255
REMARK  112  A    between atoms: _255  and  _256
REMARK  113  A    between atoms: _265  and  _267
REMARK  114  A    between atoms: _267  and  _268
REMARK  115  A    between atoms: _267  and  _270
REMARK  116  A    between atoms: _270  and  _271
REMARK  117  A    between atoms: _276  and  _277
REMARK                            x       y       z     vdW  Elec       q    Type
REMARK                         _______ _______ _______ _____ _____    ______ ____
ROOT
ATOM      1  CG  TYR A   1     -60.004  31.930 -51.412  0.00  0.00    -0.020 A 
ATOM      2  CD2 TYR A   1     -60.991  32.907 -51.255  0.00  0.00    -0.001 A 
ATOM      3  CE2 TYR A   1     -62.324  32.652 -51.593  0.00  0.00    +0.036 A 
ATOM      4  CZ  TYR A   1     -62.681  31.401 -52.085  0.00  0.00    +0.134 A 
ATOM      5  CE1 TYR A   1     -61.726  30.414 -52.246  0.00  0.00    +0.036 A 
ATOM      6  CD1 TYR A   1     -60.393  30.680 -51.898  0.00  0.00    -0.001 A 
ENDROOT
BRANCH   4   7
ATOM      7  OH  TYR A   1     -63.988  31.144 -52.431  0.00  0.00    -0.506 OA
ATOM      8  HH  TYR A   1     -64.539  31.948 -52.256  0.00  0.00    +0.292 HD
ENDBRANCH   4   7
BRANCH   1   9
ATOM      9  CB  TYR A   1     -58.558  32.200 -51.015  0.00  0.00    +0.051 C 
BRANCH   9  10
ATOM     10  CA  TYR A   1     -57.714  33.028 -51.992  0.00  0.00    +0.137 C 
BRANCH  10  11
ATOM     11  N   TYR A   1     -56.389  33.263 -51.420  0.00  0.00    -0.239 NA
ATOM     12  H   TYR A   1     -56.179  32.882 -50.475  0.00  0.00    +0.142 HD
ENDBRANCH  10  11
BRANCH  10  13
ATOM     13  C   TYR A   1     -58.374  34.376 -52.280  0.00  0.00    +0.224 C 
ATOM     14  O   TYR A   1     -58.868  34.617 -53.382  0.00  0.00    -0.287 OA
ENDBRANCH  10  13
ENDBRANCH   9  10
ENDBRANCH   1   9
TORSDOF 5
REMARK  Name = ../refined-set-2016/4dhl/4dhl_pocket.pdb
REMARK  117 active torsions:
REMARK  status: ('A' for Active; 'I' for Inactive)
REMARK    1  A    between atoms: _1  and  _3
REMARK    2  A    between atoms: _3  and  _4
REMARK    3  A    between atoms: _3  and  _6
REMARK    4  A    between atoms: _6  and  _7
REMARK    5  A    between atoms: _7  and  _9
REMARK    6  A    between atoms: _9  and  FE_280
REMARK    7  A    between atoms: _10  and  _12
REMARK    8  A    between atoms: _12  and  _13
REMARK    9  A    between atoms: _15  and  _17
REMARK   10  A    between atoms: _17  and  _18
REMARK   11  A    between atoms: _17  and  _20
REMARK   12  A    between atoms: _20  and  _21
REMARK   13  A    between atoms: _21  and  _23
REMARK   14  A    between atoms: _23  and  FE_280
REMARK   15  A    between atoms: _24  and  _26
REMARK   16  A    between atoms: _26  and  _27
REMARK   17  A    between atoms: _26  and  _29
REMARK   18  A    between atoms: _29  and  _30
REMARK   19  A    between atoms: _35  and  _36
REMARK   20  A    between atoms: _38  and  _40
REMARK   21  A    between atoms: _40  and  _41
REMARK   22  A    between atoms: _40  and  _43
REMARK   23  A    between atoms: _43  and  _44
REMARK   24  A    between atoms: _47  and  _49
REMARK   25  A    between atoms: _49  and  _50
REMARK   26  A    between atoms: _49  and  _52
REMARK   27  A    between atoms: _52  and  _53
REMARK   28  A    between atoms: _53  and  _54
REMARK   29  A    between atoms: _54  and  _55
REMARK   30  A    between atoms: _64  and  _66
REMARK   31  A    between atoms: _66  and  _67
REMARK   32  A    between atoms: _69  and  _71
REMARK   33  A    between atoms: _71  and  _72
REMARK   34  A    between atoms: _71  and  _74
REMARK   35  A    between atoms: _74  and  _75
REMARK   36  A    between atoms: _75  and  _76
REMARK   37  A    between atoms: _75  and  _77
REMARK   38  A    between atoms: _76  and  ZN_279
REMARK   39  A    between atoms: _80  and  _82
REMARK   40  A    between atoms: _82  and  _83
REMARK   41  A    between atoms: _82  and  _85
REMARK   42  A    between atoms: _85  and  _86
REMARK   43  A    between atoms: _91  and  _93
REMARK   44  A    between atoms: _93  and  _94
REMARK   45  A    between atoms: _93  and  _96
REMARK   46  A    between atoms: _96  and  _97
REMARK   47  A    between atoms: _97  and  _98
REMARK   48  A    between atoms: _101  and  _103
REMARK   49  A    between atoms: _103  and  _104
REMARK   50  A    between atoms: _103  and  _106
REMARK   51  A    between atoms: _106  and  _107
REMARK   52  A    between atoms: _112  and  _113
REMARK   53  A    between atoms: _115  and  _117
REMARK   54  A    between atoms: _117  and  _118
REMARK   55  A    between atoms: _117  and  _120
REMARK   56  A    between atoms: _120  and  _121
REMARK   57  A    between atoms: _125  and  ZN_279
REMARK   58  A    between atoms: _126  and  _128
REMARK   59  A    between atoms: _128  and  _129
REMARK   60  A    between atoms: _128  and  _131
REMARK   61  A    between atoms: _131  and  _132
REMARK   62  A    between atoms: _134  and  _136
REMARK   63  A    between atoms: _136  and  _137
REMARK   64  A    between atoms: _136  and  _139
REMARK   65  A    between atoms: _139  and  _140
REMARK   66  A    between atoms: _145  and  _147
REMARK   67  A    between atoms: _147  and  _148
REMARK   68  A    between atoms: _147  and  _150
REMARK   69  A    between atoms: _150  and  _151
REMARK   70  A    between atoms: _156  and  _158
REMARK   71  A    between atoms: _158  and  _159
REMARK   72  A    between atoms: _158  and  _161
REMARK   73  A    between atoms: _161  and  _162
REMARK   74  A    between atoms: _162  and  _163
REMARK   75  A    between atoms: _166  and  _168
REMARK   76  A    between atoms: _168  and  _169
REMARK   77  A    between atoms: _171  and  _173
REMARK   78  A    between atoms: _173  and  _174
REMARK   79  A    between atoms: _173  and  _176
REMARK   80  A    between atoms: _176  and  _177
REMARK   81  A    between atoms: _178  and  ZN_279
REMARK   82  A    between atoms: _182  and  _184
REMARK   83  A    between atoms: _184  and  _185
REMARK   84  A    between atoms: _184  and  _187
REMARK   85  A    between atoms: _190  and  _192
REMARK   86  A    between atoms: _192  and  _193
REMARK   87  A    between atoms: _192  and  _195
REMARK   88  A    between atoms: _195  and  _196
REMARK   89  A    between atoms: _201  and  _203
REMARK   90  A    between atoms: _203  and  _204
REMARK   91  A    between atoms: _206  and  _208
REMARK   92  A    between atoms: _208  and  _209
REMARK   93  A    between atoms: _208  and  _211
REMARK   94  A    between atoms: _211  and  _212
REMARK   95  A    between atoms: _217  and  _219
REMARK   96  A    between atoms: _219  and  _220
REMARK   97  A    between atoms: _219  and  _222
REMARK   98  A    between atoms: _222  and  _223
REMARK   99  A    between atoms: _228  and  _229
REMARK  100  A    between atoms: _231  and  _233
REMARK  101  A    between atoms: _233  and  _234
REMARK  102  A    between atoms: _233  and  _236
REMARK  103  A    between atoms: _239  and  _241
REMARK  104  A    between atoms: _241  and  _242
REMARK  105  A    between atoms: _241  and  _244
REMARK  106  A    between atoms: _244  and  _245
REMARK  107  A    between atoms: _248  and  _250
REMARK  108  A    between atoms: _250  and  _251
REMARK  109  A    between atoms: _250  and  _253
REMARK  110  A    between atoms: _253  and  _254
REMARK  111  A    between atoms: _254  and  _255
REMARK  112  A    between atoms: _255  and  _256
REMARK  113  A    between atoms: _265  and  _267
REMARK  114  A    between atoms: _267  and  _268
REMARK  115  A    between atoms: _267  and  _270
REMARK  116  A    between atoms: _270  and  _271
REMARK  117  A    between atoms: _276  and  _277
REMARK                            x       y       z     vdW  Elec       q    Type
REMARK                         _______ _______ _______ _____ _____    ______ ____
ROOT
ATOM      1  O   HOH     1     -73.633  29.382 -33.785  0.00  0.00    +0.000 OA
ENDROOT
TORSDOF 0
REMARK  Name = ../refined-set-2016/4dhl/4dhl_pocket.pdb
REMARK  117 active torsions:
REMARK  status: ('A' for Active; 'I' for Inactive)
REMARK    1  A    between atoms: _1  and  _3
REMARK    2  A    between atoms: _3  and  _4
REMARK    3  A    between atoms: _3  and  _6
REMARK    4  A    between atoms: _6  and  _7
REMARK    5  A    between atoms: _7  and  _9
REMARK    6  A    between atoms: _9  and  FE_280
REMARK    7  A    between atoms: _10  and  _12
REMARK    8  A    between atoms: _12  and  _13
REMARK    9  A    between atoms: _15  and  _17
REMARK   10  A    between atoms: _17  and  _18
REMARK   11  A    between atoms: _17  and  _20
REMARK   12  A    between atoms: _20  and  _21
REMARK   13  A    between atoms: _21  and  _23
REMARK   14  A    between atoms: _23  and  FE_280
REMARK   15  A    between atoms: _24  and  _26
REMARK   16  A    between atoms: _26  and  _27
REMARK   17  A    between atoms: _26  and  _29
REMARK   18  A    between atoms: _29  and  _30
REMARK   19  A    between atoms: _35  and  _36
REMARK   20  A    between atoms: _38  and  _40
REMARK   21  A    between atoms: _40  and  _41
REMARK   22  A    between atoms: _40  and  _43
REMARK   23  A    between atoms: _43  and  _44
REMARK   24  A    between atoms: _47  and  _49
REMARK   25  A    between atoms: _49  and  _50
REMARK   26  A    between atoms: _49  and  _52
REMARK   27  A    between atoms: _52  and  _53
REMARK   28  A    between atoms: _53  and  _54
REMARK   29  A    between atoms: _54  and  _55
REMARK   30  A    between atoms: _64  and  _66
REMARK   31  A    between atoms: _66  and  _67
REMARK   32  A    between atoms: _69  and  _71
REMARK   33  A    between atoms: _71  and  _72
REMARK   34  A    between atoms: _71  and  _74
REMARK   35  A    between atoms: _74  and  _75
REMARK   36  A    between atoms: _75  and  _76
REMARK   37  A    between atoms: _75  and  _77
REMARK   38  A    between atoms: _76  and  ZN_279
REMARK   39  A    between atoms: _80  and  _82
REMARK   40  A    between atoms: _82  and  _83
REMARK   41  A    between atoms: _82  and  _85
REMARK   42  A    between atoms: _85  and  _86
REMARK   43  A    between atoms: _91  and  _93
REMARK   44  A    between atoms: _93  and  _94
REMARK   45  A    between atoms: _93  and  _96
REMARK   46  A    between atoms: _96  and  _97
REMARK   47  A    between atoms: _97  and  _98
REMARK   48  A    between atoms: _101  and  _103
REMARK   49  A    between atoms: _103  and  _104
REMARK   50  A    between atoms: _103  and  _106
REMARK   51  A    between atoms: _106  and  _107
REMARK   52  A    between atoms: _112  and  _113
REMARK   53  A    between atoms: _115  and  _117
REMARK   54  A    between atoms: _117  and  _118
REMARK   55  A    between atoms: _117  and  _120
REMARK   56  A    between atoms: _120  and  _121
REMARK   57  A    between atoms: _125  and  ZN_279
REMARK   58  A    between atoms: _126  and  _128
REMARK   59  A    between atoms: _128  and  _129
REMARK   60  A    between atoms: _128  and  _131
REMARK   61  A    between atoms: _131  and  _132
REMARK   62  A    between atoms: _134  and  _136
REMARK   63  A    between atoms: _136  and  _137
REMARK   64  A    between atoms: _136  and  _139
REMARK   65  A    between atoms: _139  and  _140
REMARK   66  A    between atoms: _145  and  _147
REMARK   67  A    between atoms: _147  and  _148
REMARK   68  A    between atoms: _147  and  _150
REMARK   69  A    between atoms: _150  and  _151
REMARK   70  A    between atoms: _156  and  _158
REMARK   71  A    between atoms: _158  and  _159
REMARK   72  A    between atoms: _158  and  _161
REMARK   73  A    between atoms: _161  and  _162
REMARK   74  A    between atoms: _162  and  _163
REMARK   75  A    between atoms: _166  and  _168
REMARK   76  A    between atoms: _168  and  _169
REMARK   77  A    between atoms: _171  and  _173
REMARK   78  A    between atoms: _173  and  _174
REMARK   79  A    between atoms: _173  and  _176
REMARK   80  A    between atoms: _176  and  _177
REMARK   81  A    between atoms: _178  and  ZN_279
REMARK   82  A    between atoms: _182  and  _184
REMARK   83  A    between atoms: _184  and  _185
REMARK   84  A    between atoms: _184  and  _187
REMARK   85  A    between atoms: _190  and  _192
REMARK   86  A    between atoms: _192  and  _193
REMARK   87  A    between atoms: _192  and  _195
REMARK   88  A    between atoms: _195  and  _196
REMARK   89  A    between atoms: _201  and  _203
REMARK   90  A    between atoms: _203  and  _204
REMARK   91  A    between atoms: _206  and  _208
REMARK   92  A    between atoms: _208  and  _209
REMARK   93  A    between atoms: _208  and  _211
REMARK   94  A    between atoms: _211  and  _212
REMARK   95  A    between atoms: _217  and  _219
REMARK   96  A    between atoms: _219  and  _220
REMARK   97  A    between atoms: _219  and  _222
REMARK   98  A    between atoms: _222  and  _223
REMARK   99  A    between atoms: _228  and  _229
REMARK  100  A    between atoms: _231  and  _233
REMARK  101  A    between atoms: _233  and  _234
REMARK  102  A    between atoms: _233  and  _236
REMARK  103  A    between atoms: _239  and  _241
REMARK  104  A    between atoms: _241  and  _242
REMARK  105  A    between atoms: _241  and  _244
REMARK  106  A    between atoms: _244  and  _245
REMARK  107  A    between atoms: _248  and  _250
REMARK  108  A    between atoms: _250  and  _251
REMARK  109  A    between atoms: _250  and  _253
REMARK  110  A    between atoms: _253  and  _254
REMARK  111  A    between atoms: _254  and  _255
REMARK  112  A    between atoms: _255  and  _256
REMARK  113  A    between atoms: _265  and  _267
REMARK  114  A    between atoms: _267  and  _268
REMARK  115  A    between atoms: _267  and  _270
REMARK  116  A    between atoms: _270  and  _271
REMARK  117  A    between atoms: _276  and  _277
REMARK                            x       y       z     vdW  Elec       q    Type
REMARK                         _______ _______ _______ _____ _____    ______ ____
ROOT
ATOM      1  O   HOH     1     -64.272  27.022 -44.830  0.00  0.00    +0.000 OA
ENDROOT
TORSDOF 0
REMARK  Name = ../refined-set-2016/4dhl/4dhl_pocket.pdb
REMARK  117 active torsions:
REMARK  status: ('A' for Active; 'I' for Inactive)
REMARK    1  A    between atoms: _1  and  _3
REMARK    2  A    between atoms: _3  and  _4
REMARK    3  A    between atoms: _3  and  _6
REMARK    4  A    between atoms: _6  and  _7
REMARK    5  A    between atoms: _7  and  _9
REMARK    6  A    between atoms: _9  and  FE_280
REMARK    7  A    between atoms: _10  and  _12
REMARK    8  A    between atoms: _12  and  _13
REMARK    9  A    between atoms: _15  and  _17
REMARK   10  A    between atoms: _17  and  _18
REMARK   11  A    between atoms: _17  and  _20
REMARK   12  A    between atoms: _20  and  _21
REMARK   13  A    between atoms: _21  and  _23
REMARK   14  A    between atoms: _23  and  FE_280
REMARK   15  A    between atoms: _24  and  _26
REMARK   16  A    between atoms: _26  and  _27
REMARK   17  A    between atoms: _26  and  _29
REMARK   18  A    between atoms: _29  and  _30
REMARK   19  A    between atoms: _35  and  _36
REMARK   20  A    between atoms: _38  and  _40
REMARK   21  A    between atoms: _40  and  _41
REMARK   22  A    between atoms: _40  and  _43
REMARK   23  A    between atoms: _43  and  _44
REMARK   24  A    between atoms: _47  and  _49
REMARK   25  A    between atoms: _49  and  _50
REMARK   26  A    between atoms: _49  and  _52
REMARK   27  A    between atoms: _52  and  _53
REMARK   28  A    between atoms: _53  and  _54
REMARK   29  A    between atoms: _54  and  _55
REMARK   30  A    between atoms: _64  and  _66
REMARK   31  A    between atoms: _66  and  _67
REMARK   32  A    between atoms: _69  and  _71
REMARK   33  A    between atoms: _71  and  _72
REMARK   34  A    between atoms: _71  and  _74
REMARK   35  A    between atoms: _74  and  _75
REMARK   36  A    between atoms: _75  and  _76
REMARK   37  A    between atoms: _75  and  _77
REMARK   38  A    between atoms: _76  and  ZN_279
REMARK   39  A    between atoms: _80  and  _82
REMARK   40  A    between atoms: _82  and  _83
REMARK   41  A    between atoms: _82  and  _85
REMARK   42  A    between atoms: _85  and  _86
REMARK   43  A    between atoms: _91  and  _93
REMARK   44  A    between atoms: _93  and  _94
REMARK   45  A    between atoms: _93  and  _96
REMARK   46  A    between atoms: _96  and  _97
REMARK   47  A    between atoms: _97  and  _98
REMARK   48  A    between atoms: _101  and  _103
REMARK   49  A    between atoms: _103  and  _104
REMARK   50  A    between atoms: _103  and  _106
REMARK   51  A    between atoms: _106  and  _107
REMARK   52  A    between atoms: _112  and  _113
REMARK   53  A    between atoms: _115  and  _117
REMARK   54  A    between atoms: _117  and  _118
REMARK   55  A    between atoms: _117  and  _120
REMARK   56  A    between atoms: _120  and  _121
REMARK   57  A    between atoms: _125  and  ZN_279
REMARK   58  A    between atoms: _126  and  _128
REMARK   59  A    between atoms: _128  and  _129
REMARK   60  A    between atoms: _128  and  _131
REMARK   61  A    between atoms: _131  and  _132
REMARK   62  A    between atoms: _134  and  _136
REMARK   63  A    between atoms: _136  and  _137
REMARK   64  A    between atoms: _136  and  _139
REMARK   65  A    between atoms: _139  and  _140
REMARK   66  A    between atoms: _145  and  _147
REMARK   67  A    between atoms: _147  and  _148
REMARK   68  A    between atoms: _147  and  _150
REMARK   69  A    between atoms: _150  and  _151
REMARK   70  A    between atoms: _156  and  _158
REMARK   71  A    between atoms: _158  and  _159
REMARK   72  A    between atoms: _158  and  _161
REMARK   73  A    between atoms: _161  and  _162
REMARK   74  A    between atoms: _162  and  _163
REMARK   75  A    between atoms: _166  and  _168
REMARK   76  A    between atoms: _168  and  _169
REMARK   77  A    between atoms: _171  and  _173
REMARK   78  A    between atoms: _173  and  _174
REMARK   79  A    between atoms: _173  and  _176
REMARK   80  A    between atoms: _176  and  _177
REMARK   81  A    between atoms: _178  and  ZN_279
REMARK   82  A    between atoms: _182  and  _184
REMARK   83  A    between atoms: _184  and  _185
REMARK   84  A    between atoms: _184  and  _187
REMARK   85  A    between atoms: _190  and  _192
REMARK   86  A    between atoms: _192  and  _193
REMARK   87  A    between atoms: _192  and  _195
REMARK   88  A    between atoms: _195  and  _196
REMARK   89  A    between atoms: _201  and  _203
REMARK   90  A    between atoms: _203  and  _204
REMARK   91  A    between atoms: _206  and  _208
REMARK   92  A    between atoms: _208  and  _209
REMARK   93  A    between atoms: _208  and  _211
REMARK   94  A    between atoms: _211  and  _212
REMARK   95  A    between atoms: _217  and  _219
REMARK   96  A    between atoms: _219  and  _220
REMARK   97  A    between atoms: _219  and  _222
REMARK   98  A    between atoms: _222  and  _223
REMARK   99  A    between atoms: _228  and  _229
REMARK  100  A    between atoms: _231  and  _233
REMARK  101  A    between atoms: _233  and  _234
REMARK  102  A    between atoms: _233  and  _236
REMARK  103  A    between atoms: _239  and  _241
REMARK  104  A    between atoms: _241  and  _242
REMARK  105  A    between atoms: _241  and  _244
REMARK  106  A    between atoms: _244  and  _245
REMARK  107  A    between atoms: _248  and  _250
REMARK  108  A    between atoms: _250  and  _251
REMARK  109  A    between atoms: _250  and  _253
REMARK  110  A    between atoms: _253  and  _254
REMARK  111  A    between atoms: _254  and  _255
REMARK  112  A    between atoms: _255  and  _256
REMARK  113  A    between atoms: _265  and  _267
REMARK  114  A    between atoms: _267  and  _268
REMARK  115  A    between atoms: _267  and  _270
REMARK  116  A    between atoms: _270  and  _271
REMARK  117  A    between atoms: _276  and  _277
REMARK                            x       y       z     vdW  Elec       q    Type
REMARK                         _______ _______ _______ _____ _____    ______ ____
ROOT
ATOM      1  O   HOH     1     -70.792  26.688 -50.812  0.00  0.00    +0.000 OA
ENDROOT
TORSDOF 0
REMARK  Name = ../refined-set-2016/4dhl/4dhl_pocket.pdb
REMARK  117 active torsions:
REMARK  status: ('A' for Active; 'I' for Inactive)
REMARK    1  A    between atoms: _1  and  _3
REMARK    2  A    between atoms: _3  and  _4
REMARK    3  A    between atoms: _3  and  _6
REMARK    4  A    between atoms: _6  and  _7
REMARK    5  A    between atoms: _7  and  _9
REMARK    6  A    between atoms: _9  and  FE_280
REMARK    7  A    between atoms: _10  and  _12
REMARK    8  A    between atoms: _12  and  _13
REMARK    9  A    between atoms: _15  and  _17
REMARK   10  A    between atoms: _17  and  _18
REMARK   11  A    between atoms: _17  and  _20
REMARK   12  A    between atoms: _20  and  _21
REMARK   13  A    between atoms: _21  and  _23
REMARK   14  A    between atoms: _23  and  FE_280
REMARK   15  A    between atoms: _24  and  _26
REMARK   16  A    between atoms: _26  and  _27
REMARK   17  A    between atoms: _26  and  _29
REMARK   18  A    between atoms: _29  and  _30
REMARK   19  A    between atoms: _35  and  _36
REMARK   20  A    between atoms: _38  and  _40
REMARK   21  A    between atoms: _40  and  _41
REMARK   22  A    between atoms: _40  and  _43
REMARK   23  A    between atoms: _43  and  _44
REMARK   24  A    between atoms: _47  and  _49
REMARK   25  A    between atoms: _49  and  _50
REMARK   26  A    between atoms: _49  and  _52
REMARK   27  A    between atoms: _52  and  _53
REMARK   28  A    between atoms: _53  and  _54
REMARK   29  A    between atoms: _54  and  _55
REMARK   30  A    between atoms: _64  and  _66
REMARK   31  A    between atoms: _66  and  _67
REMARK   32  A    between atoms: _69  and  _71
REMARK   33  A    between atoms: _71  and  _72
REMARK   34  A    between atoms: _71  and  _74
REMARK   35  A    between atoms: _74  and  _75
REMARK   36  A    between atoms: _75  and  _76
REMARK   37  A    between atoms: _75  and  _77
REMARK   38  A    between atoms: _76  and  ZN_279
REMARK   39  A    between atoms: _80  and  _82
REMARK   40  A    between atoms: _82  and  _83
REMARK   41  A    between atoms: _82  and  _85
REMARK   42  A    between atoms: _85  and  _86
REMARK   43  A    between atoms: _91  and  _93
REMARK   44  A    between atoms: _93  and  _94
REMARK   45  A    between atoms: _93  and  _96
REMARK   46  A    between atoms: _96  and  _97
REMARK   47  A    between atoms: _97  and  _98
REMARK   48  A    between atoms: _101  and  _103
REMARK   49  A    between atoms: _103  and  _104
REMARK   50  A    between atoms: _103  and  _106
REMARK   51  A    between atoms: _106  and  _107
REMARK   52  A    between atoms: _112  and  _113
REMARK   53  A    between atoms: _115  and  _117
REMARK   54  A    between atoms: _117  and  _118
REMARK   55  A    between atoms: _117  and  _120
REMARK   56  A    between atoms: _120  and  _121
REMARK   57  A    between atoms: _125  and  ZN_279
REMARK   58  A    between atoms: _126  and  _128
REMARK   59  A    between atoms: _128  and  _129
REMARK   60  A    between atoms: _128  and  _131
REMARK   61  A    between atoms: _131  and  _132
REMARK   62  A    between atoms: _134  and  _136
REMARK   63  A    between atoms: _136  and  _137
REMARK   64  A    between atoms: _136  and  _139
REMARK   65  A    between atoms: _139  and  _140
REMARK   66  A    between atoms: _145  and  _147
REMARK   67  A    between atoms: _147  and  _148
REMARK   68  A    between atoms: _147  and  _150
REMARK   69  A    between atoms: _150  and  _151
REMARK   70  A    between atoms: _156  and  _158
REMARK   71  A    between atoms: _158  and  _159
REMARK   72  A    between atoms: _158  and  _161
REMARK   73  A    between atoms: _161  and  _162
REMARK   74  A    between atoms: _162  and  _163
REMARK   75  A    between atoms: _166  and  _168
REMARK   76  A    between atoms: _168  and  _169
REMARK   77  A    between atoms: _171  and  _173
REMARK   78  A    between atoms: _173  and  _174
REMARK   79  A    between atoms: _173  and  _176
REMARK   80  A    between atoms: _176  and  _177
REMARK   81  A    between atoms: _178  and  ZN_279
REMARK   82  A    between atoms: _182  and  _184
REMARK   83  A    between atoms: _184  and  _185
REMARK   84  A    between atoms: _184  and  _187
REMARK   85  A    between atoms: _190  and  _192
REMARK   86  A    between atoms: _192  and  _193
REMARK   87  A    between atoms: _192  and  _195
REMARK   88  A    between atoms: _195  and  _196
REMARK   89  A    between atoms: _201  and  _203
REMARK   90  A    between atoms: _203  and  _204
REMARK   91  A    between atoms: _206  and  _208
REMARK   92  A    between atoms: _208  and  _209
REMARK   93  A    between atoms: _208  and  _211
REMARK   94  A    between atoms: _211  and  _212
REMARK   95  A    between atoms: _217  and  _219
REMARK   96  A    between atoms: _219  and  _220
REMARK   97  A    between atoms: _219  and  _222
REMARK   98  A    between atoms: _222  and  _223
REMARK   99  A    between atoms: _228  and  _229
REMARK  100  A    between atoms: _231  and  _233
REMARK  101  A    between atoms: _233  and  _234
REMARK  102  A    between atoms: _233  and  _236
REMARK  103  A    between atoms: _239  and  _241
REMARK  104  A    between atoms: _241  and  _242
REMARK  105  A    between atoms: _241  and  _244
REMARK  106  A    between atoms: _244  and  _245
REMARK  107  A    between atoms: _248  and  _250
REMARK  108  A    between atoms: _250  and  _251
REMARK  109  A    between atoms: _250  and  _253
REMARK  110  A    between atoms: _253  and  _254
REMARK  111  A    between atoms: _254  and  _255
REMARK  112  A    between atoms: _255  and  _256
REMARK  113  A    between atoms: _265  and  _267
REMARK  114  A    between atoms: _267  and  _268
REMARK  115  A    between atoms: _267  and  _270
REMARK  116  A    between atoms: _270  and  _271
REMARK  117  A    between atoms: _276  and  _277
REMARK                            x       y       z     vdW  Elec       q    Type
REMARK                         _______ _______ _______ _____ _____    ______ ____
ROOT
ATOM      1  O   HOH     1     -65.492  37.193 -41.352  0.00  0.00    +0.000 OA
ENDROOT
TORSDOF 0
REMARK  Name = ../refined-set-2016/4dhl/4dhl_pocket.pdb
REMARK  117 active torsions:
REMARK  status: ('A' for Active; 'I' for Inactive)
REMARK    1  A    between atoms: _1  and  _3
REMARK    2  A    between atoms: _3  and  _4
REMARK    3  A    between atoms: _3  and  _6
REMARK    4  A    between atoms: _6  and  _7
REMARK    5  A    between atoms: _7  and  _9
REMARK    6  A    between atoms: _9  and  FE_280
REMARK    7  A    between atoms: _10  and  _12
REMARK    8  A    between atoms: _12  and  _13
REMARK    9  A    between atoms: _15  and  _17
REMARK   10  A    between atoms: _17  and  _18
REMARK   11  A    between atoms: _17  and  _20
REMARK   12  A    between atoms: _20  and  _21
REMARK   13  A    between atoms: _21  and  _23
REMARK   14  A    between atoms: _23  and  FE_280
REMARK   15  A    between atoms: _24  and  _26
REMARK   16  A    between atoms: _26  and  _27
REMARK   17  A    between atoms: _26  and  _29
REMARK   18  A    between atoms: _29  and  _30
REMARK   19  A    between atoms: _35  and  _36
REMARK   20  A    between atoms: _38  and  _40
REMARK   21  A    between atoms: _40  and  _41
REMARK   22  A    between atoms: _40  and  _43
REMARK   23  A    between atoms: _43  and  _44
REMARK   24  A    between atoms: _47  and  _49
REMARK   25  A    between atoms: _49  and  _50
REMARK   26  A    between atoms: _49  and  _52
REMARK   27  A    between atoms: _52  and  _53
REMARK   28  A    between atoms: _53  and  _54
REMARK   29  A    between atoms: _54  and  _55
REMARK   30  A    between atoms: _64  and  _66
REMARK   31  A    between atoms: _66  and  _67
REMARK   32  A    between atoms: _69  and  _71
REMARK   33  A    between atoms: _71  and  _72
REMARK   34  A    between atoms: _71  and  _74
REMARK   35  A    between atoms: _74  and  _75
REMARK   36  A    between atoms: _75  and  _76
REMARK   37  A    between atoms: _75  and  _77
REMARK   38  A    between atoms: _76  and  ZN_279
REMARK   39  A    between atoms: _80  and  _82
REMARK   40  A    between atoms: _82  and  _83
REMARK   41  A    between atoms: _82  and  _85
REMARK   42  A    between atoms: _85  and  _86
REMARK   43  A    between atoms: _91  and  _93
REMARK   44  A    between atoms: _93  and  _94
REMARK   45  A    between atoms: _93  and  _96
REMARK   46  A    between atoms: _96  and  _97
REMARK   47  A    between atoms: _97  and  _98
REMARK   48  A    between atoms: _101  and  _103
REMARK   49  A    between atoms: _103  and  _104
REMARK   50  A    between atoms: _103  and  _106
REMARK   51  A    between atoms: _106  and  _107
REMARK   52  A    between atoms: _112  and  _113
REMARK   53  A    between atoms: _115  and  _117
REMARK   54  A    between atoms: _117  and  _118
REMARK   55  A    between atoms: _117  and  _120
REMARK   56  A    between atoms: _120  and  _121
REMARK   57  A    between atoms: _125  and  ZN_279
REMARK   58  A    between atoms: _126  and  _128
REMARK   59  A    between atoms: _128  and  _129
REMARK   60  A    between atoms: _128  and  _131
REMARK   61  A    between atoms: _131  and  _132
REMARK   62  A    between atoms: _134  and  _136
REMARK   63  A    between atoms: _136  and  _137
REMARK   64  A    between atoms: _136  and  _139
REMARK   65  A    between atoms: _139  and  _140
REMARK   66  A    between atoms: _145  and  _147
REMARK   67  A    between atoms: _147  and  _148
REMARK   68  A    between atoms: _147  and  _150
REMARK   69  A    between atoms: _150  and  _151
REMARK   70  A    between atoms: _156  and  _158
REMARK   71  A    between atoms: _158  and  _159
REMARK   72  A    between atoms: _158  and  _161
REMARK   73  A    between atoms: _161  and  _162
REMARK   74  A    between atoms: _162  and  _163
REMARK   75  A    between atoms: _166  and  _168
REMARK   76  A    between atoms: _168  and  _169
REMARK   77  A    between atoms: _171  and  _173
REMARK   78  A    between atoms: _173  and  _174
REMARK   79  A    between atoms: _173  and  _176
REMARK   80  A    between atoms: _176  and  _177
REMARK   81  A    between atoms: _178  and  ZN_279
REMARK   82  A    between atoms: _182  and  _184
REMARK   83  A    between atoms: _184  and  _185
REMARK   84  A    between atoms: _184  and  _187
REMARK   85  A    between atoms: _190  and  _192
REMARK   86  A    between atoms: _192  and  _193
REMARK   87  A    between atoms: _192  and  _195
REMARK   88  A    between atoms: _195  and  _196
REMARK   89  A    between atoms: _201  and  _203
REMARK   90  A    between atoms: _203  and  _204
REMARK   91  A    between atoms: _206  and  _208
REMARK   92  A    between atoms: _208  and  _209
REMARK   93  A    between atoms: _208  and  _211
REMARK   94  A    between atoms: _211  and  _212
REMARK   95  A    between atoms: _217  and  _219
REMARK   96  A    between atoms: _219  and  _220
REMARK   97  A    between atoms: _219  and  _222
REMARK   98  A    between atoms: _222  and  _223
REMARK   99  A    between atoms: _228  and  _229
REMARK  100  A    between atoms: _231  and  _233
REMARK  101  A    between atoms: _233  and  _234
REMARK  102  A    between atoms: _233  and  _236
REMARK  103  A    between atoms: _239  and  _241
REMARK  104  A    between atoms: _241  and  _242
REMARK  105  A    between atoms: _241  and  _244
REMARK  106  A    between atoms: _244  and  _245
REMARK  107  A    between atoms: _248  and  _250
REMARK  108  A    between atoms: _250  and  _251
REMARK  109  A    between atoms: _250  and  _253
REMARK  110  A    between atoms: _253  and  _254
REMARK  111  A    between atoms: _254  and  _255
REMARK  112  A    between atoms: _255  and  _256
REMARK  113  A    between atoms: _265  and  _267
REMARK  114  A    between atoms: _267  and  _268
REMARK  115  A    between atoms: _267  and  _270
REMARK  116  A    between atoms: _270  and  _271
REMARK  117  A    between atoms: _276  and  _277
REMARK                            x       y       z     vdW  Elec       q    Type
REMARK                         _______ _______ _______ _____ _____    ______ ____
ROOT
ATOM      1  O   HOH     1     -68.968  28.970 -50.163  0.00  0.00    +0.000 OA
ENDROOT
TORSDOF 0
REMARK  Name = ../refined-set-2016/4dhl/4dhl_pocket.pdb
REMARK  117 active torsions:
REMARK  status: ('A' for Active; 'I' for Inactive)
REMARK    1  A    between atoms: _1  and  _3
REMARK    2  A    between atoms: _3  and  _4
REMARK    3  A    between atoms: _3  and  _6
REMARK    4  A    between atoms: _6  and  _7
REMARK    5  A    between atoms: _7  and  _9
REMARK    6  A    between atoms: _9  and  FE_280
REMARK    7  A    between atoms: _10  and  _12
REMARK    8  A    between atoms: _12  and  _13
REMARK    9  A    between atoms: _15  and  _17
REMARK   10  A    between atoms: _17  and  _18
REMARK   11  A    between atoms: _17  and  _20
REMARK   12  A    between atoms: _20  and  _21
REMARK   13  A    between atoms: _21  and  _23
REMARK   14  A    between atoms: _23  and  FE_280
REMARK   15  A    between atoms: _24  and  _26
REMARK   16  A    between atoms: _26  and  _27
REMARK   17  A    between atoms: _26  and  _29
REMARK   18  A    between atoms: _29  and  _30
REMARK   19  A    between atoms: _35  and  _36
REMARK   20  A    between atoms: _38  and  _40
REMARK   21  A    between atoms: _40  and  _41
REMARK   22  A    between atoms: _40  and  _43
REMARK   23  A    between atoms: _43  and  _44
REMARK   24  A    between atoms: _47  and  _49
REMARK   25  A    between atoms: _49  and  _50
REMARK   26  A    between atoms: _49  and  _52
REMARK   27  A    between atoms: _52  and  _53
REMARK   28  A    between atoms: _53  and  _54
REMARK   29  A    between atoms: _54  and  _55
REMARK   30  A    between atoms: _64  and  _66
REMARK   31  A    between atoms: _66  and  _67
REMARK   32  A    between atoms: _69  and  _71
REMARK   33  A    between atoms: _71  and  _72
REMARK   34  A    between atoms: _71  and  _74
REMARK   35  A    between atoms: _74  and  _75
REMARK   36  A    between atoms: _75  and  _76
REMARK   37  A    between atoms: _75  and  _77
REMARK   38  A    between atoms: _76  and  ZN_279
REMARK   39  A    between atoms: _80  and  _82
REMARK   40  A    between atoms: _82  and  _83
REMARK   41  A    between atoms: _82  and  _85
REMARK   42  A    between atoms: _85  and  _86
REMARK   43  A    between atoms: _91  and  _93
REMARK   44  A    between atoms: _93  and  _94
REMARK   45  A    between atoms: _93  and  _96
REMARK   46  A    between atoms: _96  and  _97
REMARK   47  A    between atoms: _97  and  _98
REMARK   48  A    between atoms: _101  and  _103
REMARK   49  A    between atoms: _103  and  _104
REMARK   50  A    between atoms: _103  and  _106
REMARK   51  A    between atoms: _106  and  _107
REMARK   52  A    between atoms: _112  and  _113
REMARK   53  A    between atoms: _115  and  _117
REMARK   54  A    between atoms: _117  and  _118
REMARK   55  A    between atoms: _117  and  _120
REMARK   56  A    between atoms: _120  and  _121
REMARK   57  A    between atoms: _125  and  ZN_279
REMARK   58  A    between atoms: _126  and  _128
REMARK   59  A    between atoms: _128  and  _129
REMARK   60  A    between atoms: _128  and  _131
REMARK   61  A    between atoms: _131  and  _132
REMARK   62  A    between atoms: _134  and  _136
REMARK   63  A    between atoms: _136  and  _137
REMARK   64  A    between atoms: _136  and  _139
REMARK   65  A    between atoms: _139  and  _140
REMARK   66  A    between atoms: _145  and  _147
REMARK   67  A    between atoms: _147  and  _148
REMARK   68  A    between atoms: _147  and  _150
REMARK   69  A    between atoms: _150  and  _151
REMARK   70  A    between atoms: _156  and  _158
REMARK   71  A    between atoms: _158  and  _159
REMARK   72  A    between atoms: _158  and  _161
REMARK   73  A    between atoms: _161  and  _162
REMARK   74  A    between atoms: _162  and  _163
REMARK   75  A    between atoms: _166  and  _168
REMARK   76  A    between atoms: _168  and  _169
REMARK   77  A    between atoms: _171  and  _173
REMARK   78  A    between atoms: _173  and  _174
REMARK   79  A    between atoms: _173  and  _176
REMARK   80  A    between atoms: _176  and  _177
REMARK   81  A    between atoms: _178  and  ZN_279
REMARK   82  A    between atoms: _182  and  _184
REMARK   83  A    between atoms: _184  and  _185
REMARK   84  A    between atoms: _184  and  _187
REMARK   85  A    between atoms: _190  and  _192
REMARK   86  A    between atoms: _192  and  _193
REMARK   87  A    between atoms: _192  and  _195
REMARK   88  A    between atoms: _195  and  _196
REMARK   89  A    between atoms: _201  and  _203
REMARK   90  A    between atoms: _203  and  _204
REMARK   91  A    between atoms: _206  and  _208
REMARK   92  A    between atoms: _208  and  _209
REMARK   93  A    between atoms: _208  and  _211
REMARK   94  A    between atoms: _211  and  _212
REMARK   95  A    between atoms: _217  and  _219
REMARK   96  A    between atoms: _219  and  _220
REMARK   97  A    between atoms: _219  and  _222
REMARK   98  A    between atoms: _222  and  _223
REMARK   99  A    between atoms: _228  and  _229
REMARK  100  A    between atoms: _231  and  _233
REMARK  101  A    between atoms: _233  and  _234
REMARK  102  A    between atoms: _233  and  _236
REMARK  103  A    between atoms: _239  and  _241
REMARK  104  A    between atoms: _241  and  _242
REMARK  105  A    between atoms: _241  and  _244
REMARK  106  A    between atoms: _244  and  _245
REMARK  107  A    between atoms: _248  and  _250
REMARK  108  A    between atoms: _250  and  _251
REMARK  109  A    between atoms: _250  and  _253
REMARK  110  A    between atoms: _253  and  _254
REMARK  111  A    between atoms: _254  and  _255
REMARK  112  A    between atoms: _255  and  _256
REMARK  113  A    between atoms: _265  and  _267
REMARK  114  A    between atoms: _267  and  _268
REMARK  115  A    between atoms: _267  and  _270
REMARK  116  A    between atoms: _270  and  _271
REMARK  117  A    between atoms: _276  and  _277
REMARK                            x       y       z     vdW  Elec       q    Type
REMARK                         _______ _______ _______ _____ _____    ______ ____
ROOT
ATOM      1  O   HOH     1     -66.140  30.732 -45.478  0.00  0.00    +0.000 OA
ENDROOT
TORSDOF 0
REMARK  Name = ../refined-set-2016/4dhl/4dhl_pocket.pdb
REMARK  117 active torsions:
REMARK  status: ('A' for Active; 'I' for Inactive)
REMARK    1  A    between atoms: _1  and  _3
REMARK    2  A    between atoms: _3  and  _4
REMARK    3  A    between atoms: _3  and  _6
REMARK    4  A    between atoms: _6  and  _7
REMARK    5  A    between atoms: _7  and  _9
REMARK    6  A    between atoms: _9  and  FE_280
REMARK    7  A    between atoms: _10  and  _12
REMARK    8  A    between atoms: _12  and  _13
REMARK    9  A    between atoms: _15  and  _17
REMARK   10  A    between atoms: _17  and  _18
REMARK   11  A    between atoms: _17  and  _20
REMARK   12  A    between atoms: _20  and  _21
REMARK   13  A    between atoms: _21  and  _23
REMARK   14  A    between atoms: _23  and  FE_280
REMARK   15  A    between atoms: _24  and  _26
REMARK   16  A    between atoms: _26  and  _27
REMARK   17  A    between atoms: _26  and  _29
REMARK   18  A    between atoms: _29  and  _30
REMARK   19  A    between atoms: _35  and  _36
REMARK   20  A    between atoms: _38  and  _40
REMARK   21  A    between atoms: _40  and  _41
REMARK   22  A    between atoms: _40  and  _43
REMARK   23  A    between atoms: _43  and  _44
REMARK   24  A    between atoms: _47  and  _49
REMARK   25  A    between atoms: _49  and  _50
REMARK   26  A    between atoms: _49  and  _52
REMARK   27  A    between atoms: _52  and  _53
REMARK   28  A    between atoms: _53  and  _54
REMARK   29  A    between atoms: _54  and  _55
REMARK   30  A    between atoms: _64  and  _66
REMARK   31  A    between atoms: _66  and  _67
REMARK   32  A    between atoms: _69  and  _71
REMARK   33  A    between atoms: _71  and  _72
REMARK   34  A    between atoms: _71  and  _74
REMARK   35  A    between atoms: _74  and  _75
REMARK   36  A    between atoms: _75  and  _76
REMARK   37  A    between atoms: _75  and  _77
REMARK   38  A    between atoms: _76  and  ZN_279
REMARK   39  A    between atoms: _80  and  _82
REMARK   40  A    between atoms: _82  and  _83
REMARK   41  A    between atoms: _82  and  _85
REMARK   42  A    between atoms: _85  and  _86
REMARK   43  A    between atoms: _91  and  _93
REMARK   44  A    between atoms: _93  and  _94
REMARK   45  A    between atoms: _93  and  _96
REMARK   46  A    between atoms: _96  and  _97
REMARK   47  A    between atoms: _97  and  _98
REMARK   48  A    between atoms: _101  and  _103
REMARK   49  A    between atoms: _103  and  _104
REMARK   50  A    between atoms: _103  and  _106
REMARK   51  A    between atoms: _106  and  _107
REMARK   52  A    between atoms: _112  and  _113
REMARK   53  A    between atoms: _115  and  _117
REMARK   54  A    between atoms: _117  and  _118
REMARK   55  A    between atoms: _117  and  _120
REMARK   56  A    between atoms: _120  and  _121
REMARK   57  A    between atoms: _125  and  ZN_279
REMARK   58  A    between atoms: _126  and  _128
REMARK   59  A    between atoms: _128  and  _129
REMARK   60  A    between atoms: _128  and  _131
REMARK   61  A    between atoms: _131  and  _132
REMARK   62  A    between atoms: _134  and  _136
REMARK   63  A    between atoms: _136  and  _137
REMARK   64  A    between atoms: _136  and  _139
REMARK   65  A    between atoms: _139  and  _140
REMARK   66  A    between atoms: _145  and  _147
REMARK   67  A    between atoms: _147  and  _148
REMARK   68  A    between atoms: _147  and  _150
REMARK   69  A    between atoms: _150  and  _151
REMARK   70  A    between atoms: _156  and  _158
REMARK   71  A    between atoms: _158  and  _159
REMARK   72  A    between atoms: _158  and  _161
REMARK   73  A    between atoms: _161  and  _162
REMARK   74  A    between atoms: _162  and  _163
REMARK   75  A    between atoms: _166  and  _168
REMARK   76  A    between atoms: _168  and  _169
REMARK   77  A    between atoms: _171  and  _173
REMARK   78  A    between atoms: _173  and  _174
REMARK   79  A    between atoms: _173  and  _176
REMARK   80  A    between atoms: _176  and  _177
REMARK   81  A    between atoms: _178  and  ZN_279
REMARK   82  A    between atoms: _182  and  _184
REMARK   83  A    between atoms: _184  and  _185
REMARK   84  A    between atoms: _184  and  _187
REMARK   85  A    between atoms: _190  and  _192
REMARK   86  A    between atoms: _192  and  _193
REMARK   87  A    between atoms: _192  and  _195
REMARK   88  A    between atoms: _195  and  _196
REMARK   89  A    between atoms: _201  and  _203
REMARK   90  A    between atoms: _203  and  _204
REMARK   91  A    between atoms: _206  and  _208
REMARK   92  A    between atoms: _208  and  _209
REMARK   93  A    between atoms: _208  and  _211
REMARK   94  A    between atoms: _211  and  _212
REMARK   95  A    between atoms: _217  and  _219
REMARK   96  A    between atoms: _219  and  _220
REMARK   97  A    between atoms: _219  and  _222
REMARK   98  A    between atoms: _222  and  _223
REMARK   99  A    between atoms: _228  and  _229
REMARK  100  A    between atoms: _231  and  _233
REMARK  101  A    between atoms: _233  and  _234
REMARK  102  A    between atoms: _233  and  _236
REMARK  103  A    between atoms: _239  and  _241
REMARK  104  A    between atoms: _241  and  _242
REMARK  105  A    between atoms: _241  and  _244
REMARK  106  A    between atoms: _244  and  _245
REMARK  107  A    between atoms: _248  and  _250
REMARK  108  A    between atoms: _250  and  _251
REMARK  109  A    between atoms: _250  and  _253
REMARK  110  A    between atoms: _253  and  _254
REMARK  111  A    between atoms: _254  and  _255
REMARK  112  A    between atoms: _255  and  _256
REMARK  113  A    between atoms: _265  and  _267
REMARK  114  A    between atoms: _267  and  _268
REMARK  115  A    between atoms: _267  and  _270
REMARK  116  A    between atoms: _270  and  _271
REMARK  117  A    between atoms: _276  and  _277
REMARK                            x       y       z     vdW  Elec       q    Type
REMARK                         _______ _______ _______ _____ _____    ______ ____
ROOT
ATOM      1  O   HOH     1     -71.944  29.516 -48.651  0.00  0.00    +0.000 OA
ENDROOT
TORSDOF 0
REMARK  Name = ../refined-set-2016/4dhl/4dhl_pocket.pdb
REMARK  117 active torsions:
REMARK  status: ('A' for Active; 'I' for Inactive)
REMARK    1  A    between atoms: _1  and  _3
REMARK    2  A    between atoms: _3  and  _4
REMARK    3  A    between atoms: _3  and  _6
REMARK    4  A    between atoms: _6  and  _7
REMARK    5  A    between atoms: _7  and  _9
REMARK    6  A    between atoms: _9  and  FE_280
REMARK    7  A    between atoms: _10  and  _12
REMARK    8  A    between atoms: _12  and  _13
REMARK    9  A    between atoms: _15  and  _17
REMARK   10  A    between atoms: _17  and  _18
REMARK   11  A    between atoms: _17  and  _20
REMARK   12  A    between atoms: _20  and  _21
REMARK   13  A    between atoms: _21  and  _23
REMARK   14  A    between atoms: _23  and  FE_280
REMARK   15  A    between atoms: _24  and  _26
REMARK   16  A    between atoms: _26  and  _27
REMARK   17  A    between atoms: _26  and  _29
REMARK   18  A    between atoms: _29  and  _30
REMARK   19  A    between atoms: _35  and  _36
REMARK   20  A    between atoms: _38  and  _40
REMARK   21  A    between atoms: _40  and  _41
REMARK   22  A    between atoms: _40  and  _43
REMARK   23  A    between atoms: _43  and  _44
REMARK   24  A    between atoms: _47  and  _49
REMARK   25  A    between atoms: _49  and  _50
REMARK   26  A    between atoms: _49  and  _52
REMARK   27  A    between atoms: _52  and  _53
REMARK   28  A    between atoms: _53  and  _54
REMARK   29  A    between atoms: _54  and  _55
REMARK   30  A    between atoms: _64  and  _66
REMARK   31  A    between atoms: _66  and  _67
REMARK   32  A    between atoms: _69  and  _71
REMARK   33  A    between atoms: _71  and  _72
REMARK   34  A    between atoms: _71  and  _74
REMARK   35  A    between atoms: _74  and  _75
REMARK   36  A    between atoms: _75  and  _76
REMARK   37  A    between atoms: _75  and  _77
REMARK   38  A    between atoms: _76  and  ZN_279
REMARK   39  A    between atoms: _80  and  _82
REMARK   40  A    between atoms: _82  and  _83
REMARK   41  A    between atoms: _82  and  _85
REMARK   42  A    between atoms: _85  and  _86
REMARK   43  A    between atoms: _91  and  _93
REMARK   44  A    between atoms: _93  and  _94
REMARK   45  A    between atoms: _93  and  _96
REMARK   46  A    between atoms: _96  and  _97
REMARK   47  A    between atoms: _97  and  _98
REMARK   48  A    between atoms: _101  and  _103
REMARK   49  A    between atoms: _103  and  _104
REMARK   50  A    between atoms: _103  and  _106
REMARK   51  A    between atoms: _106  and  _107
REMARK   52  A    between atoms: _112  and  _113
REMARK   53  A    between atoms: _115  and  _117
REMARK   54  A    between atoms: _117  and  _118
REMARK   55  A    between atoms: _117  and  _120
REMARK   56  A    between atoms: _120  and  _121
REMARK   57  A    between atoms: _125  and  ZN_279
REMARK   58  A    between atoms: _126  and  _128
REMARK   59  A    between atoms: _128  and  _129
REMARK   60  A    between atoms: _128  and  _131
REMARK   61  A    between atoms: _131  and  _132
REMARK   62  A    between atoms: _134  and  _136
REMARK   63  A    between atoms: _136  and  _137
REMARK   64  A    between atoms: _136  and  _139
REMARK   65  A    between atoms: _139  and  _140
REMARK   66  A    between atoms: _145  and  _147
REMARK   67  A    between atoms: _147  and  _148
REMARK   68  A    between atoms: _147  and  _150
REMARK   69  A    between atoms: _150  and  _151
REMARK   70  A    between atoms: _156  and  _158
REMARK   71  A    between atoms: _158  and  _159
REMARK   72  A    between atoms: _158  and  _161
REMARK   73  A    between atoms: _161  and  _162
REMARK   74  A    between atoms: _162  and  _163
REMARK   75  A    between atoms: _166  and  _168
REMARK   76  A    between atoms: _168  and  _169
REMARK   77  A    between atoms: _171  and  _173
REMARK   78  A    between atoms: _173  and  _174
REMARK   79  A    between atoms: _173  and  _176
REMARK   80  A    between atoms: _176  and  _177
REMARK   81  A    between atoms: _178  and  ZN_279
REMARK   82  A    between atoms: _182  and  _184
REMARK   83  A    between atoms: _184  and  _185
REMARK   84  A    between atoms: _184  and  _187
REMARK   85  A    between atoms: _190  and  _192
REMARK   86  A    between atoms: _192  and  _193
REMARK   87  A    between atoms: _192  and  _195
REMARK   88  A    between atoms: _195  and  _196
REMARK   89  A    between atoms: _201  and  _203
REMARK   90  A    between atoms: _203  and  _204
REMARK   91  A    between atoms: _206  and  _208
REMARK   92  A    between atoms: _208  and  _209
REMARK   93  A    between atoms: _208  and  _211
REMARK   94  A    between atoms: _211  and  _212
REMARK   95  A    between atoms: _217  and  _219
REMARK   96  A    between atoms: _219  and  _220
REMARK   97  A    between atoms: _219  and  _222
REMARK   98  A    between atoms: _222  and  _223
REMARK   99  A    between atoms: _228  and  _229
REMARK  100  A    between atoms: _231  and  _233
REMARK  101  A    between atoms: _233  and  _234
REMARK  102  A    between atoms: _233  and  _236
REMARK  103  A    between atoms: _239  and  _241
REMARK  104  A    between atoms: _241  and  _242
REMARK  105  A    between atoms: _241  and  _244
REMARK  106  A    between atoms: _244  and  _245
REMARK  107  A    between atoms: _248  and  _250
REMARK  108  A    between atoms: _250  and  _251
REMARK  109  A    between atoms: _250  and  _253
REMARK  110  A    between atoms: _253  and  _254
REMARK  111  A    between atoms: _254  and  _255
REMARK  112  A    between atoms: _255  and  _256
REMARK  113  A    between atoms: _265  and  _267
REMARK  114  A    between atoms: _267  and  _268
REMARK  115  A    between atoms: _267  and  _270
REMARK  116  A    between atoms: _270  and  _271
REMARK  117  A    between atoms: _276  and  _277
REMARK                            x       y       z     vdW  Elec       q    Type
REMARK                         _______ _______ _______ _____ _____    ______ ____
ROOT
ATOM      1  O   HOH     1     -70.733  37.629 -40.886  0.00  0.00    +0.000 OA
ENDROOT
TORSDOF 0
REMARK  Name = ../refined-set-2016/4dhl/4dhl_pocket.pdb
REMARK  117 active torsions:
REMARK  status: ('A' for Active; 'I' for Inactive)
REMARK    1  A    between atoms: _1  and  _3
REMARK    2  A    between atoms: _3  and  _4
REMARK    3  A    between atoms: _3  and  _6
REMARK    4  A    between atoms: _6  and  _7
REMARK    5  A    between atoms: _7  and  _9
REMARK    6  A    between atoms: _9  and  FE_280
REMARK    7  A    between atoms: _10  and  _12
REMARK    8  A    between atoms: _12  and  _13
REMARK    9  A    between atoms: _15  and  _17
REMARK   10  A    between atoms: _17  and  _18
REMARK   11  A    between atoms: _17  and  _20
REMARK   12  A    between atoms: _20  and  _21
REMARK   13  A    between atoms: _21  and  _23
REMARK   14  A    between atoms: _23  and  FE_280
REMARK   15  A    between atoms: _24  and  _26
REMARK   16  A    between atoms: _26  and  _27
REMARK   17  A    between atoms: _26  and  _29
REMARK   18  A    between atoms: _29  and  _30
REMARK   19  A    between atoms: _35  and  _36
REMARK   20  A    between atoms: _38  and  _40
REMARK   21  A    between atoms: _40  and  _41
REMARK   22  A    between atoms: _40  and  _43
REMARK   23  A    between atoms: _43  and  _44
REMARK   24  A    between atoms: _47  and  _49
REMARK   25  A    between atoms: _49  and  _50
REMARK   26  A    between atoms: _49  and  _52
REMARK   27  A    between atoms: _52  and  _53
REMARK   28  A    between atoms: _53  and  _54
REMARK   29  A    between atoms: _54  and  _55
REMARK   30  A    between atoms: _64  and  _66
REMARK   31  A    between atoms: _66  and  _67
REMARK   32  A    between atoms: _69  and  _71
REMARK   33  A    between atoms: _71  and  _72
REMARK   34  A    between atoms: _71  and  _74
REMARK   35  A    between atoms: _74  and  _75
REMARK   36  A    between atoms: _75  and  _76
REMARK   37  A    between atoms: _75  and  _77
REMARK   38  A    between atoms: _76  and  ZN_279
REMARK   39  A    between atoms: _80  and  _82
REMARK   40  A    between atoms: _82  and  _83
REMARK   41  A    between atoms: _82  and  _85
REMARK   42  A    between atoms: _85  and  _86
REMARK   43  A    between atoms: _91  and  _93
REMARK   44  A    between atoms: _93  and  _94
REMARK   45  A    between atoms: _93  and  _96
REMARK   46  A    between atoms: _96  and  _97
REMARK   47  A    between atoms: _97  and  _98
REMARK   48  A    between atoms: _101  and  _103
REMARK   49  A    between atoms: _103  and  _104
REMARK   50  A    between atoms: _103  and  _106
REMARK   51  A    between atoms: _106  and  _107
REMARK   52  A    between atoms: _112  and  _113
REMARK   53  A    between atoms: _115  and  _117
REMARK   54  A    between atoms: _117  and  _118
REMARK   55  A    between atoms: _117  and  _120
REMARK   56  A    between atoms: _120  and  _121
REMARK   57  A    between atoms: _125  and  ZN_279
REMARK   58  A    between atoms: _126  and  _128
REMARK   59  A    between atoms: _128  and  _129
REMARK   60  A    between atoms: _128  and  _131
REMARK   61  A    between atoms: _131  and  _132
REMARK   62  A    between atoms: _134  and  _136
REMARK   63  A    between atoms: _136  and  _137
REMARK   64  A    between atoms: _136  and  _139
REMARK   65  A    between atoms: _139  and  _140
REMARK   66  A    between atoms: _145  and  _147
REMARK   67  A    between atoms: _147  and  _148
REMARK   68  A    between atoms: _147  and  _150
REMARK   69  A    between atoms: _150  and  _151
REMARK   70  A    between atoms: _156  and  _158
REMARK   71  A    between atoms: _158  and  _159
REMARK   72  A    between atoms: _158  and  _161
REMARK   73  A    between atoms: _161  and  _162
REMARK   74  A    between atoms: _162  and  _163
REMARK   75  A    between atoms: _166  and  _168
REMARK   76  A    between atoms: _168  and  _169
REMARK   77  A    between atoms: _171  and  _173
REMARK   78  A    between atoms: _173  and  _174
REMARK   79  A    between atoms: _173  and  _176
REMARK   80  A    between atoms: _176  and  _177
REMARK   81  A    between atoms: _178  and  ZN_279
REMARK   82  A    between atoms: _182  and  _184
REMARK   83  A    between atoms: _184  and  _185
REMARK   84  A    between atoms: _184  and  _187
REMARK   85  A    between atoms: _190  and  _192
REMARK   86  A    between atoms: _192  and  _193
REMARK   87  A    between atoms: _192  and  _195
REMARK   88  A    between atoms: _195  and  _196
REMARK   89  A    between atoms: _201  and  _203
REMARK   90  A    between atoms: _203  and  _204
REMARK   91  A    between atoms: _206  and  _208
REMARK   92  A    between atoms: _208  and  _209
REMARK   93  A    between atoms: _208  and  _211
REMARK   94  A    between atoms: _211  and  _212
REMARK   95  A    between atoms: _217  and  _219
REMARK   96  A    between atoms: _219  and  _220
REMARK   97  A    between atoms: _219  and  _222
REMARK   98  A    between atoms: _222  and  _223
REMARK   99  A    between atoms: _228  and  _229
REMARK  100  A    between atoms: _231  and  _233
REMARK  101  A    between atoms: _233  and  _234
REMARK  102  A    between atoms: _233  and  _236
REMARK  103  A    between atoms: _239  and  _241
REMARK  104  A    between atoms: _241  and  _242
REMARK  105  A    between atoms: _241  and  _244
REMARK  106  A    between atoms: _244  and  _245
REMARK  107  A    between atoms: _248  and  _250
REMARK  108  A    between atoms: _250  and  _251
REMARK  109  A    between atoms: _250  and  _253
REMARK  110  A    between atoms: _253  and  _254
REMARK  111  A    between atoms: _254  and  _255
REMARK  112  A    between atoms: _255  and  _256
REMARK  113  A    between atoms: _265  and  _267
REMARK  114  A    between atoms: _267  and  _268
REMARK  115  A    between atoms: _267  and  _270
REMARK  116  A    between atoms: _270  and  _271
REMARK  117  A    between atoms: _276  and  _277
REMARK                            x       y       z     vdW  Elec       q    Type
REMARK                         _______ _______ _______ _____ _____    ______ ____
ROOT
ATOM      1  O   HOH     1     -77.896  29.548 -47.115  0.00  0.00    +0.000 OA
ENDROOT
TORSDOF 0
REMARK  Name = ../refined-set-2016/4dhl/4dhl_pocket.pdb
REMARK  117 active torsions:
REMARK  status: ('A' for Active; 'I' for Inactive)
REMARK    1  A    between atoms: _1  and  _3
REMARK    2  A    between atoms: _3  and  _4
REMARK    3  A    between atoms: _3  and  _6
REMARK    4  A    between atoms: _6  and  _7
REMARK    5  A    between atoms: _7  and  _9
REMARK    6  A    between atoms: _9  and  FE_280
REMARK    7  A    between atoms: _10  and  _12
REMARK    8  A    between atoms: _12  and  _13
REMARK    9  A    between atoms: _15  and  _17
REMARK   10  A    between atoms: _17  and  _18
REMARK   11  A    between atoms: _17  and  _20
REMARK   12  A    between atoms: _20  and  _21
REMARK   13  A    between atoms: _21  and  _23
REMARK   14  A    between atoms: _23  and  FE_280
REMARK   15  A    between atoms: _24  and  _26
REMARK   16  A    between atoms: _26  and  _27
REMARK   17  A    between atoms: _26  and  _29
REMARK   18  A    between atoms: _29  and  _30
REMARK   19  A    between atoms: _35  and  _36
REMARK   20  A    between atoms: _38  and  _40
REMARK   21  A    between atoms: _40  and  _41
REMARK   22  A    between atoms: _40  and  _43
REMARK   23  A    between atoms: _43  and  _44
REMARK   24  A    between atoms: _47  and  _49
REMARK   25  A    between atoms: _49  and  _50
REMARK   26  A    between atoms: _49  and  _52
REMARK   27  A    between atoms: _52  and  _53
REMARK   28  A    between atoms: _53  and  _54
REMARK   29  A    between atoms: _54  and  _55
REMARK   30  A    between atoms: _64  and  _66
REMARK   31  A    between atoms: _66  and  _67
REMARK   32  A    between atoms: _69  and  _71
REMARK   33  A    between atoms: _71  and  _72
REMARK   34  A    between atoms: _71  and  _74
REMARK   35  A    between atoms: _74  and  _75
REMARK   36  A    between atoms: _75  and  _76
REMARK   37  A    between atoms: _75  and  _77
REMARK   38  A    between atoms: _76  and  ZN_279
REMARK   39  A    between atoms: _80  and  _82
REMARK   40  A    between atoms: _82  and  _83
REMARK   41  A    between atoms: _82  and  _85
REMARK   42  A    between atoms: _85  and  _86
REMARK   43  A    between atoms: _91  and  _93
REMARK   44  A    between atoms: _93  and  _94
REMARK   45  A    between atoms: _93  and  _96
REMARK   46  A    between atoms: _96  and  _97
REMARK   47  A    between atoms: _97  and  _98
REMARK   48  A    between atoms: _101  and  _103
REMARK   49  A    between atoms: _103  and  _104
REMARK   50  A    between atoms: _103  and  _106
REMARK   51  A    between atoms: _106  and  _107
REMARK   52  A    between atoms: _112  and  _113
REMARK   53  A    between atoms: _115  and  _117
REMARK   54  A    between atoms: _117  and  _118
REMARK   55  A    between atoms: _117  and  _120
REMARK   56  A    between atoms: _120  and  _121
REMARK   57  A    between atoms: _125  and  ZN_279
REMARK   58  A    between atoms: _126  and  _128
REMARK   59  A    between atoms: _128  and  _129
REMARK   60  A    between atoms: _128  and  _131
REMARK   61  A    between atoms: _131  and  _132
REMARK   62  A    between atoms: _134  and  _136
REMARK   63  A    between atoms: _136  and  _137
REMARK   64  A    between atoms: _136  and  _139
REMARK   65  A    between atoms: _139  and  _140
REMARK   66  A    between atoms: _145  and  _147
REMARK   67  A    between atoms: _147  and  _148
REMARK   68  A    between atoms: _147  and  _150
REMARK   69  A    between atoms: _150  and  _151
REMARK   70  A    between atoms: _156  and  _158
REMARK   71  A    between atoms: _158  and  _159
REMARK   72  A    between atoms: _158  and  _161
REMARK   73  A    between atoms: _161  and  _162
REMARK   74  A    between atoms: _162  and  _163
REMARK   75  A    between atoms: _166  and  _168
REMARK   76  A    between atoms: _168  and  _169
REMARK   77  A    between atoms: _171  and  _173
REMARK   78  A    between atoms: _173  and  _174
REMARK   79  A    between atoms: _173  and  _176
REMARK   80  A    between atoms: _176  and  _177
REMARK   81  A    between atoms: _178  and  ZN_279
REMARK   82  A    between atoms: _182  and  _184
REMARK   83  A    between atoms: _184  and  _185
REMARK   84  A    between atoms: _184  and  _187
REMARK   85  A    between atoms: _190  and  _192
REMARK   86  A    between atoms: _192  and  _193
REMARK   87  A    between atoms: _192  and  _195
REMARK   88  A    between atoms: _195  and  _196
REMARK   89  A    between atoms: _201  and  _203
REMARK   90  A    between atoms: _203  and  _204
REMARK   91  A    between atoms: _206  and  _208
REMARK   92  A    between atoms: _208  and  _209
REMARK   93  A    between atoms: _208  and  _211
REMARK   94  A    between atoms: _211  and  _212
REMARK   95  A    between atoms: _217  and  _219
REMARK   96  A    between atoms: _219  and  _220
REMARK   97  A    between atoms: _219  and  _222
REMARK   98  A    between atoms: _222  and  _223
REMARK   99  A    between atoms: _228  and  _229
REMARK  100  A    between atoms: _231  and  _233
REMARK  101  A    between atoms: _233  and  _234
REMARK  102  A    between atoms: _233  and  _236
REMARK  103  A    between atoms: _239  and  _241
REMARK  104  A    between atoms: _241  and  _242
REMARK  105  A    between atoms: _241  and  _244
REMARK  106  A    between atoms: _244  and  _245
REMARK  107  A    between atoms: _248  and  _250
REMARK  108  A    between atoms: _250  and  _251
REMARK  109  A    between atoms: _250  and  _253
REMARK  110  A    between atoms: _253  and  _254
REMARK  111  A    between atoms: _254  and  _255
REMARK  112  A    between atoms: _255  and  _256
REMARK  113  A    between atoms: _265  and  _267
REMARK  114  A    between atoms: _267  and  _268
REMARK  115  A    between atoms: _267  and  _270
REMARK  116  A    between atoms: _270  and  _271
REMARK  117  A    between atoms: _276  and  _277
REMARK                            x       y       z     vdW  Elec       q    Type
REMARK                         _______ _______ _______ _____ _____    ______ ____
ROOT
ATOM      1  O   HOH     1     -66.212  32.726 -52.216  0.00  0.00    +0.000 OA
ENDROOT
TORSDOF 0
REMARK  Name = ../refined-set-2016/4dhl/4dhl_pocket.pdb
REMARK  117 active torsions:
REMARK  status: ('A' for Active; 'I' for Inactive)
REMARK    1  A    between atoms: _1  and  _3
REMARK    2  A    between atoms: _3  and  _4
REMARK    3  A    between atoms: _3  and  _6
REMARK    4  A    between atoms: _6  and  _7
REMARK    5  A    between atoms: _7  and  _9
REMARK    6  A    between atoms: _9  and  FE_280
REMARK    7  A    between atoms: _10  and  _12
REMARK    8  A    between atoms: _12  and  _13
REMARK    9  A    between atoms: _15  and  _17
REMARK   10  A    between atoms: _17  and  _18
REMARK   11  A    between atoms: _17  and  _20
REMARK   12  A    between atoms: _20  and  _21
REMARK   13  A    between atoms: _21  and  _23
REMARK   14  A    between atoms: _23  and  FE_280
REMARK   15  A    between atoms: _24  and  _26
REMARK   16  A    between atoms: _26  and  _27
REMARK   17  A    between atoms: _26  and  _29
REMARK   18  A    between atoms: _29  and  _30
REMARK   19  A    between atoms: _35  and  _36
REMARK   20  A    between atoms: _38  and  _40
REMARK   21  A    between atoms: _40  and  _41
REMARK   22  A    between atoms: _40  and  _43
REMARK   23  A    between atoms: _43  and  _44
REMARK   24  A    between atoms: _47  and  _49
REMARK   25  A    between atoms: _49  and  _50
REMARK   26  A    between atoms: _49  and  _52
REMARK   27  A    between atoms: _52  and  _53
REMARK   28  A    between atoms: _53  and  _54
REMARK   29  A    between atoms: _54  and  _55
REMARK   30  A    between atoms: _64  and  _66
REMARK   31  A    between atoms: _66  and  _67
REMARK   32  A    between atoms: _69  and  _71
REMARK   33  A    between atoms: _71  and  _72
REMARK   34  A    between atoms: _71  and  _74
REMARK   35  A    between atoms: _74  and  _75
REMARK   36  A    between atoms: _75  and  _76
REMARK   37  A    between atoms: _75  and  _77
REMARK   38  A    between atoms: _76  and  ZN_279
REMARK   39  A    between atoms: _80  and  _82
REMARK   40  A    between atoms: _82  and  _83
REMARK   41  A    between atoms: _82  and  _85
REMARK   42  A    between atoms: _85  and  _86
REMARK   43  A    between atoms: _91  and  _93
REMARK   44  A    between atoms: _93  and  _94
REMARK   45  A    between atoms: _93  and  _96
REMARK   46  A    between atoms: _96  and  _97
REMARK   47  A    between atoms: _97  and  _98
REMARK   48  A    between atoms: _101  and  _103
REMARK   49  A    between atoms: _103  and  _104
REMARK   50  A    between atoms: _103  and  _106
REMARK   51  A    between atoms: _106  and  _107
REMARK   52  A    between atoms: _112  and  _113
REMARK   53  A    between atoms: _115  and  _117
REMARK   54  A    between atoms: _117  and  _118
REMARK   55  A    between atoms: _117  and  _120
REMARK   56  A    between atoms: _120  and  _121
REMARK   57  A    between atoms: _125  and  ZN_279
REMARK   58  A    between atoms: _126  and  _128
REMARK   59  A    between atoms: _128  and  _129
REMARK   60  A    between atoms: _128  and  _131
REMARK   61  A    between atoms: _131  and  _132
REMARK   62  A    between atoms: _134  and  _136
REMARK   63  A    between atoms: _136  and  _137
REMARK   64  A    between atoms: _136  and  _139
REMARK   65  A    between atoms: _139  and  _140
REMARK   66  A    between atoms: _145  and  _147
REMARK   67  A    between atoms: _147  and  _148
REMARK   68  A    between atoms: _147  and  _150
REMARK   69  A    between atoms: _150  and  _151
REMARK   70  A    between atoms: _156  and  _158
REMARK   71  A    between atoms: _158  and  _159
REMARK   72  A    between atoms: _158  and  _161
REMARK   73  A    between atoms: _161  and  _162
REMARK   74  A    between atoms: _162  and  _163
REMARK   75  A    between atoms: _166  and  _168
REMARK   76  A    between atoms: _168  and  _169
REMARK   77  A    between atoms: _171  and  _173
REMARK   78  A    between atoms: _173  and  _174
REMARK   79  A    between atoms: _173  and  _176
REMARK   80  A    between atoms: _176  and  _177
REMARK   81  A    between atoms: _178  and  ZN_279
REMARK   82  A    between atoms: _182  and  _184
REMARK   83  A    between atoms: _184  and  _185
REMARK   84  A    between atoms: _184  and  _187
REMARK   85  A    between atoms: _190  and  _192
REMARK   86  A    between atoms: _192  and  _193
REMARK   87  A    between atoms: _192  and  _195
REMARK   88  A    between atoms: _195  and  _196
REMARK   89  A    between atoms: _201  and  _203
REMARK   90  A    between atoms: _203  and  _204
REMARK   91  A    between atoms: _206  and  _208
REMARK   92  A    between atoms: _208  and  _209
REMARK   93  A    between atoms: _208  and  _211
REMARK   94  A    between atoms: _211  and  _212
REMARK   95  A    between atoms: _217  and  _219
REMARK   96  A    between atoms: _219  and  _220
REMARK   97  A    between atoms: _219  and  _222
REMARK   98  A    between atoms: _222  and  _223
REMARK   99  A    between atoms: _228  and  _229
REMARK  100  A    between atoms: _231  and  _233
REMARK  101  A    between atoms: _233  and  _234
REMARK  102  A    between atoms: _233  and  _236
REMARK  103  A    between atoms: _239  and  _241
REMARK  104  A    between atoms: _241  and  _242
REMARK  105  A    between atoms: _241  and  _244
REMARK  106  A    between atoms: _244  and  _245
REMARK  107  A    between atoms: _248  and  _250
REMARK  108  A    between atoms: _250  and  _251
REMARK  109  A    between atoms: _250  and  _253
REMARK  110  A    between atoms: _253  and  _254
REMARK  111  A    between atoms: _254  and  _255
REMARK  112  A    between atoms: _255  and  _256
REMARK  113  A    between atoms: _265  and  _267
REMARK  114  A    between atoms: _267  and  _268
REMARK  115  A    between atoms: _267  and  _270
REMARK  116  A    between atoms: _270  and  _271
REMARK  117  A    between atoms: _276  and  _277
REMARK                            x       y       z     vdW  Elec       q    Type
REMARK                         _______ _______ _______ _____ _____    ______ ____
ROOT
ATOM      1  O   HOH     1     -65.401  35.096 -51.517  0.00  0.00    +0.000 OA
ENDROOT
TORSDOF 0
REMARK  Name = ../refined-set-2016/4dhl/4dhl_pocket.pdb
REMARK  117 active torsions:
REMARK  status: ('A' for Active; 'I' for Inactive)
REMARK    1  A    between atoms: _1  and  _3
REMARK    2  A    between atoms: _3  and  _4
REMARK    3  A    between atoms: _3  and  _6
REMARK    4  A    between atoms: _6  and  _7
REMARK    5  A    between atoms: _7  and  _9
REMARK    6  A    between atoms: _9  and  FE_280
REMARK    7  A    between atoms: _10  and  _12
REMARK    8  A    between atoms: _12  and  _13
REMARK    9  A    between atoms: _15  and  _17
REMARK   10  A    between atoms: _17  and  _18
REMARK   11  A    between atoms: _17  and  _20
REMARK   12  A    between atoms: _20  and  _21
REMARK   13  A    between atoms: _21  and  _23
REMARK   14  A    between atoms: _23  and  FE_280
REMARK   15  A    between atoms: _24  and  _26
REMARK   16  A    between atoms: _26  and  _27
REMARK   17  A    between atoms: _26  and  _29
REMARK   18  A    between atoms: _29  and  _30
REMARK   19  A    between atoms: _35  and  _36
REMARK   20  A    between atoms: _38  and  _40
REMARK   21  A    between atoms: _40  and  _41
REMARK   22  A    between atoms: _40  and  _43
REMARK   23  A    between atoms: _43  and  _44
REMARK   24  A    between atoms: _47  and  _49
REMARK   25  A    between atoms: _49  and  _50
REMARK   26  A    between atoms: _49  and  _52
REMARK   27  A    between atoms: _52  and  _53
REMARK   28  A    between atoms: _53  and  _54
REMARK   29  A    between atoms: _54  and  _55
REMARK   30  A    between atoms: _64  and  _66
REMARK   31  A    between atoms: _66  and  _67
REMARK   32  A    between atoms: _69  and  _71
REMARK   33  A    between atoms: _71  and  _72
REMARK   34  A    between atoms: _71  and  _74
REMARK   35  A    between atoms: _74  and  _75
REMARK   36  A    between atoms: _75  and  _76
REMARK   37  A    between atoms: _75  and  _77
REMARK   38  A    between atoms: _76  and  ZN_279
REMARK   39  A    between atoms: _80  and  _82
REMARK   40  A    between atoms: _82  and  _83
REMARK   41  A    between atoms: _82  and  _85
REMARK   42  A    between atoms: _85  and  _86
REMARK   43  A    between atoms: _91  and  _93
REMARK   44  A    between atoms: _93  and  _94
REMARK   45  A    between atoms: _93  and  _96
REMARK   46  A    between atoms: _96  and  _97
REMARK   47  A    between atoms: _97  and  _98
REMARK   48  A    between atoms: _101  and  _103
REMARK   49  A    between atoms: _103  and  _104
REMARK   50  A    between atoms: _103  and  _106
REMARK   51  A    between atoms: _106  and  _107
REMARK   52  A    between atoms: _112  and  _113
REMARK   53  A    between atoms: _115  and  _117
REMARK   54  A    between atoms: _117  and  _118
REMARK   55  A    between atoms: _117  and  _120
REMARK   56  A    between atoms: _120  and  _121
REMARK   57  A    between atoms: _125  and  ZN_279
REMARK   58  A    between atoms: _126  and  _128
REMARK   59  A    between atoms: _128  and  _129
REMARK   60  A    between atoms: _128  and  _131
REMARK   61  A    between atoms: _131  and  _132
REMARK   62  A    between atoms: _134  and  _136
REMARK   63  A    between atoms: _136  and  _137
REMARK   64  A    between atoms: _136  and  _139
REMARK   65  A    between atoms: _139  and  _140
REMARK   66  A    between atoms: _145  and  _147
REMARK   67  A    between atoms: _147  and  _148
REMARK   68  A    between atoms: _147  and  _150
REMARK   69  A    between atoms: _150  and  _151
REMARK   70  A    between atoms: _156  and  _158
REMARK   71  A    between atoms: _158  and  _159
REMARK   72  A    between atoms: _158  and  _161
REMARK   73  A    between atoms: _161  and  _162
REMARK   74  A    between atoms: _162  and  _163
REMARK   75  A    between atoms: _166  and  _168
REMARK   76  A    between atoms: _168  and  _169
REMARK   77  A    between atoms: _171  and  _173
REMARK   78  A    between atoms: _173  and  _174
REMARK   79  A    between atoms: _173  and  _176
REMARK   80  A    between atoms: _176  and  _177
REMARK   81  A    between atoms: _178  and  ZN_279
REMARK   82  A    between atoms: _182  and  _184
REMARK   83  A    between atoms: _184  and  _185
REMARK   84  A    between atoms: _184  and  _187
REMARK   85  A    between atoms: _190  and  _192
REMARK   86  A    between atoms: _192  and  _193
REMARK   87  A    between atoms: _192  and  _195
REMARK   88  A    between atoms: _195  and  _196
REMARK   89  A    between atoms: _201  and  _203
REMARK   90  A    between atoms: _203  and  _204
REMARK   91  A    between atoms: _206  and  _208
REMARK   92  A    between atoms: _208  and  _209
REMARK   93  A    between atoms: _208  and  _211
REMARK   94  A    between atoms: _211  and  _212
REMARK   95  A    between atoms: _217  and  _219
REMARK   96  A    between atoms: _219  and  _220
REMARK   97  A    between atoms: _219  and  _222
REMARK   98  A    between atoms: _222  and  _223
REMARK   99  A    between atoms: _228  and  _229
REMARK  100  A    between atoms: _231  and  _233
REMARK  101  A    between atoms: _233  and  _234
REMARK  102  A    between atoms: _233  and  _236
REMARK  103  A    between atoms: _239  and  _241
REMARK  104  A    between atoms: _241  and  _242
REMARK  105  A    between atoms: _241  and  _244
REMARK  106  A    between atoms: _244  and  _245
REMARK  107  A    between atoms: _248  and  _250
REMARK  108  A    between atoms: _250  and  _251
REMARK  109  A    between atoms: _250  and  _253
REMARK  110  A    between atoms: _253  and  _254
REMARK  111  A    between atoms: _254  and  _255
REMARK  112  A    between atoms: _255  and  _256
REMARK  113  A    between atoms: _265  and  _267
REMARK  114  A    between atoms: _267  and  _268
REMARK  115  A    between atoms: _267  and  _270
REMARK  116  A    between atoms: _270  and  _271
REMARK  117  A    between atoms: _276  and  _277
REMARK                            x       y       z     vdW  Elec       q    Type
REMARK                         _______ _______ _______ _____ _____    ______ ____
ROOT
ATOM      1  O   HOH     1     -63.590  31.699 -44.744  0.00  0.00    +0.000 OA
ENDROOT
TORSDOF 0
REMARK  Name = ../refined-set-2016/4dhl/4dhl_pocket.pdb
REMARK  117 active torsions:
REMARK  status: ('A' for Active; 'I' for Inactive)
REMARK    1  A    between atoms: _1  and  _3
REMARK    2  A    between atoms: _3  and  _4
REMARK    3  A    between atoms: _3  and  _6
REMARK    4  A    between atoms: _6  and  _7
REMARK    5  A    between atoms: _7  and  _9
REMARK    6  A    between atoms: _9  and  FE_280
REMARK    7  A    between atoms: _10  and  _12
REMARK    8  A    between atoms: _12  and  _13
REMARK    9  A    between atoms: _15  and  _17
REMARK   10  A    between atoms: _17  and  _18
REMARK   11  A    between atoms: _17  and  _20
REMARK   12  A    between atoms: _20  and  _21
REMARK   13  A    between atoms: _21  and  _23
REMARK   14  A    between atoms: _23  and  FE_280
REMARK   15  A    between atoms: _24  and  _26
REMARK   16  A    between atoms: _26  and  _27
REMARK   17  A    between atoms: _26  and  _29
REMARK   18  A    between atoms: _29  and  _30
REMARK   19  A    between atoms: _35  and  _36
REMARK   20  A    between atoms: _38  and  _40
REMARK   21  A    between atoms: _40  and  _41
REMARK   22  A    between atoms: _40  and  _43
REMARK   23  A    between atoms: _43  and  _44
REMARK   24  A    between atoms: _47  and  _49
REMARK   25  A    between atoms: _49  and  _50
REMARK   26  A    between atoms: _49  and  _52
REMARK   27  A    between atoms: _52  and  _53
REMARK   28  A    between atoms: _53  and  _54
REMARK   29  A    between atoms: _54  and  _55
REMARK   30  A    between atoms: _64  and  _66
REMARK   31  A    between atoms: _66  and  _67
REMARK   32  A    between atoms: _69  and  _71
REMARK   33  A    between atoms: _71  and  _72
REMARK   34  A    between atoms: _71  and  _74
REMARK   35  A    between atoms: _74  and  _75
REMARK   36  A    between atoms: _75  and  _76
REMARK   37  A    between atoms: _75  and  _77
REMARK   38  A    between atoms: _76  and  ZN_279
REMARK   39  A    between atoms: _80  and  _82
REMARK   40  A    between atoms: _82  and  _83
REMARK   41  A    between atoms: _82  and  _85
REMARK   42  A    between atoms: _85  and  _86
REMARK   43  A    between atoms: _91  and  _93
REMARK   44  A    between atoms: _93  and  _94
REMARK   45  A    between atoms: _93  and  _96
REMARK   46  A    between atoms: _96  and  _97
REMARK   47  A    between atoms: _97  and  _98
REMARK   48  A    between atoms: _101  and  _103
REMARK   49  A    between atoms: _103  and  _104
REMARK   50  A    between atoms: _103  and  _106
REMARK   51  A    between atoms: _106  and  _107
REMARK   52  A    between atoms: _112  and  _113
REMARK   53  A    between atoms: _115  and  _117
REMARK   54  A    between atoms: _117  and  _118
REMARK   55  A    between atoms: _117  and  _120
REMARK   56  A    between atoms: _120  and  _121
REMARK   57  A    between atoms: _125  and  ZN_279
REMARK   58  A    between atoms: _126  and  _128
REMARK   59  A    between atoms: _128  and  _129
REMARK   60  A    between atoms: _128  and  _131
REMARK   61  A    between atoms: _131  and  _132
REMARK   62  A    between atoms: _134  and  _136
REMARK   63  A    between atoms: _136  and  _137
REMARK   64  A    between atoms: _136  and  _139
REMARK   65  A    between atoms: _139  and  _140
REMARK   66  A    between atoms: _145  and  _147
REMARK   67  A    between atoms: _147  and  _148
REMARK   68  A    between atoms: _147  and  _150
REMARK   69  A    between atoms: _150  and  _151
REMARK   70  A    between atoms: _156  and  _158
REMARK   71  A    between atoms: _158  and  _159
REMARK   72  A    between atoms: _158  and  _161
REMARK   73  A    between atoms: _161  and  _162
REMARK   74  A    between atoms: _162  and  _163
REMARK   75  A    between atoms: _166  and  _168
REMARK   76  A    between atoms: _168  and  _169
REMARK   77  A    between atoms: _171  and  _173
REMARK   78  A    between atoms: _173  and  _174
REMARK   79  A    between atoms: _173  and  _176
REMARK   80  A    between atoms: _176  and  _177
REMARK   81  A    between atoms: _178  and  ZN_279
REMARK   82  A    between atoms: _182  and  _184
REMARK   83  A    between atoms: _184  and  _185
REMARK   84  A    between atoms: _184  and  _187
REMARK   85  A    between atoms: _190  and  _192
REMARK   86  A    between atoms: _192  and  _193
REMARK   87  A    between atoms: _192  and  _195
REMARK   88  A    between atoms: _195  and  _196
REMARK   89  A    between atoms: _201  and  _203
REMARK   90  A    between atoms: _203  and  _204
REMARK   91  A    between atoms: _206  and  _208
REMARK   92  A    between atoms: _208  and  _209
REMARK   93  A    between atoms: _208  and  _211
REMARK   94  A    between atoms: _211  and  _212
REMARK   95  A    between atoms: _217  and  _219
REMARK   96  A    between atoms: _219  and  _220
REMARK   97  A    between atoms: _219  and  _222
REMARK   98  A    between atoms: _222  and  _223
REMARK   99  A    between atoms: _228  and  _229
REMARK  100  A    between atoms: _231  and  _233
REMARK  101  A    between atoms: _233  and  _234
REMARK  102  A    between atoms: _233  and  _236
REMARK  103  A    between atoms: _239  and  _241
REMARK  104  A    between atoms: _241  and  _242
REMARK  105  A    between atoms: _241  and  _244
REMARK  106  A    between atoms: _244  and  _245
REMARK  107  A    between atoms: _248  and  _250
REMARK  108  A    between atoms: _250  and  _251
REMARK  109  A    between atoms: _250  and  _253
REMARK  110  A    between atoms: _253  and  _254
REMARK  111  A    between atoms: _254  and  _255
REMARK  112  A    between atoms: _255  and  _256
REMARK  113  A    between atoms: _265  and  _267
REMARK  114  A    between atoms: _267  and  _268
REMARK  115  A    between atoms: _267  and  _270
REMARK  116  A    between atoms: _270  and  _271
REMARK  117  A    between atoms: _276  and  _277
REMARK                            x       y       z     vdW  Elec       q    Type
REMARK                         _______ _______ _______ _____ _____    ______ ____
ROOT
ATOM      1  O   HOH     1     -63.421  34.976 -48.958  0.00  0.00    +0.000 OA
ENDROOT
TORSDOF 0
