REMARK  Name = ../refined-set-2016/2idw/2idw_pocket.pdb
REMARK  203 active torsions:
REMARK  status: ('A' for Active; 'I' for Inactive)
REMARK    1  A    between atoms: _1  and  _3
REMARK    2  A    between atoms: _3  and  _4
REMARK    3  A    between atoms: _3  and  _6
REMARK    4  A    between atoms: _6  and  _7
REMARK    5  A    between atoms: _7  and  _8
REMARK    6  A    between atoms: _8  and  _9
REMARK    7  A    between atoms: _18  and  _20
REMARK    8  A    between atoms: _20  and  _21
REMARK    9  A    between atoms: _20  and  _23
REMARK   10  A    between atoms: _23  and  _24
REMARK   11  A    between atoms: _27  and  _29
REMARK   12  A    between atoms: _29  and  _30
REMARK   13  A    between atoms: _29  and  _32
REMARK   14  A    between atoms: _32  and  _33
REMARK   15  A    between atoms: _36  and  _38
REMARK   16  A    between atoms: _38  and  _39
REMARK   17  A    between atoms: _38  and  _41
REMARK   18  A    between atoms: _41  and  _42
REMARK   19  A    between atoms: _45  and  _47
REMARK   20  A    between atoms: _47  and  _48
REMARK   21  A    between atoms: _47  and  _50
REMARK   22  A    between atoms: _50  and  _51
REMARK   23  A    between atoms: _54  and  _56
REMARK   24  A    between atoms: _56  and  _57
REMARK   25  A    between atoms: _59  and  _61
REMARK   26  A    between atoms: _61  and  _62
REMARK   27  A    between atoms: _65  and  _67
REMARK   28  A    between atoms: _67  and  _68
REMARK   29  A    between atoms: _67  and  _70
REMARK   30  A    between atoms: _70  and  _71
REMARK   31  A    between atoms: _74  and  _76
REMARK   32  A    between atoms: _76  and  _77
REMARK   33  A    between atoms: _76  and  _79
REMARK   34  A    between atoms: _79  and  _80
REMARK   35  A    between atoms: _83  and  _85
REMARK   36  A    between atoms: _85  and  _86
REMARK   37  A    between atoms: _85  and  _88
REMARK   38  A    between atoms: _88  and  _89
REMARK   39  A    between atoms: _92  and  _94
REMARK   40  A    between atoms: _94  and  _95
REMARK   41  A    between atoms: _94  and  _97
REMARK   42  A    between atoms: _100  and  _102
REMARK   43  A    between atoms: _102  and  _103
REMARK   44  A    between atoms: _102  and  _105
REMARK   45  A    between atoms: _105  and  _106
REMARK   46  A    between atoms: _106  and  _107
REMARK   47  A    between atoms: _107  and  _108
REMARK   48  A    between atoms: _108  and  _109
REMARK   49  A    between atoms: _113  and  _115
REMARK   50  A    between atoms: _115  and  _116
REMARK   51  A    between atoms: _115  and  _118
REMARK   52  A    between atoms: _118  and  _119
REMARK   53  A    between atoms: _119  and  _120
REMARK   54  A    between atoms: _122  and  _124
REMARK   55  A    between atoms: _124  and  _125
REMARK   56  A    between atoms: _124  and  _127
REMARK   57  A    between atoms: _127  and  _128
REMARK   58  A    between atoms: _131  and  _133
REMARK   59  A    between atoms: _133  and  _134
REMARK   60  A    between atoms: _136  and  _138
REMARK   61  A    between atoms: _138  and  _139
REMARK   62  A    between atoms: _141  and  _143
REMARK   63  A    between atoms: _143  and  _144
REMARK   64  A    between atoms: _143  and  _146
REMARK   65  A    between atoms: _146  and  _147
REMARK   66  A    between atoms: _150  and  _152
REMARK   67  A    between atoms: _152  and  _153
REMARK   68  A    between atoms: _155  and  _157
REMARK   69  A    between atoms: _157  and  _158
REMARK   70  A    between atoms: _160  and  _162
REMARK   71  A    between atoms: _162  and  _163
REMARK   72  A    between atoms: _162  and  _165
REMARK   73  A    between atoms: _165  and  _166
REMARK   74  A    between atoms: _172  and  _174
REMARK   75  A    between atoms: _174  and  _175
REMARK   76  A    between atoms: _174  and  _177
REMARK   77  A    between atoms: _177  and  _178
REMARK   78  A    between atoms: _181  and  _183
REMARK   79  A    between atoms: _183  and  _184
REMARK   80  A    between atoms: _183  and  _186
REMARK   81  A    between atoms: _189  and  _191
REMARK   82  A    between atoms: _191  and  _192
REMARK   83  A    between atoms: _191  and  _194
REMARK   84  A    between atoms: _194  and  _195
REMARK   85  A    between atoms: _198  and  _200
REMARK   86  A    between atoms: _200  and  _201
REMARK   87  A    between atoms: _200  and  _203
REMARK   88  A    between atoms: _203  and  _204
REMARK   89  A    between atoms: _208  and  _209
REMARK   90  A    between atoms: _214  and  _216
REMARK   91  A    between atoms: _216  and  _217
REMARK   92  A    between atoms: _220  and  _222
REMARK   93  A    between atoms: _222  and  _223
REMARK   94  A    between atoms: _222  and  _225
REMARK   95  A    between atoms: _225  and  _226
REMARK   96  A    between atoms: _231  and  _233
REMARK   97  A    between atoms: _233  and  _234
REMARK   98  A    between atoms: _233  and  _236
REMARK   99  A    between atoms: _236  and  _237
REMARK  100  A    between atoms: _240  and  _242
REMARK  101  A    between atoms: _242  and  _243
REMARK  102  A    between atoms: _242  and  _245
REMARK  103  A    between atoms: _245  and  _246
REMARK  104  A    between atoms: _249  and  _251
REMARK  105  A    between atoms: _251  and  _252
REMARK  106  A    between atoms: _254  and  _256
REMARK  107  A    between atoms: _256  and  _257
REMARK  108  A    between atoms: _256  and  _259
REMARK  109  A    between atoms: _259  and  _260
REMARK  110  A    between atoms: _260  and  _261
REMARK  111  A    between atoms: _261  and  _262
REMARK  112  A    between atoms: _271  and  _273
REMARK  113  A    between atoms: _273  and  _274
REMARK  114  A    between atoms: _273  and  _276
REMARK  115  A    between atoms: _276  and  _277
REMARK  116  A    between atoms: _277  and  _278
REMARK  117  A    between atoms: _278  and  _279
REMARK  118  A    between atoms: _288  and  _290
REMARK  119  A    between atoms: _290  and  _291
REMARK  120  A    between atoms: _290  and  _293
REMARK  121  A    between atoms: _293  and  _294
REMARK  122  A    between atoms: _297  and  _299
REMARK  123  A    between atoms: _299  and  _300
REMARK  124  A    between atoms: _299  and  _302
REMARK  125  A    between atoms: _302  and  _303
REMARK  126  A    between atoms: _306  and  _308
REMARK  127  A    between atoms: _308  and  _309
REMARK  128  A    between atoms: _308  and  _311
REMARK  129  A    between atoms: _311  and  _312
REMARK  130  A    between atoms: _315  and  _317
REMARK  131  A    between atoms: _317  and  _318
REMARK  132  A    between atoms: _317  and  _320
REMARK  133  A    between atoms: _320  and  _321
REMARK  134  A    between atoms: _324  and  _326
REMARK  135  A    between atoms: _326  and  _327
REMARK  136  A    between atoms: _329  and  _331
REMARK  137  A    between atoms: _331  and  _332
REMARK  138  A    between atoms: _335  and  _337
REMARK  139  A    between atoms: _337  and  _338
REMARK  140  A    between atoms: _337  and  _340
REMARK  141  A    between atoms: _340  and  _341
REMARK  142  A    between atoms: _344  and  _346
REMARK  143  A    between atoms: _346  and  _347
REMARK  144  A    between atoms: _346  and  _349
REMARK  145  A    between atoms: _349  and  _350
REMARK  146  A    between atoms: _353  and  _355
REMARK  147  A    between atoms: _355  and  _356
REMARK  148  A    between atoms: _355  and  _358
REMARK  149  A    between atoms: _358  and  _359
REMARK  150  A    between atoms: _362  and  _364
REMARK  151  A    between atoms: _364  and  _365
REMARK  152  A    between atoms: _364  and  _367
REMARK  153  A    between atoms: _370  and  _372
REMARK  154  A    between atoms: _372  and  _373
REMARK  155  A    between atoms: _372  and  _375
REMARK  156  A    between atoms: _375  and  _376
REMARK  157  A    between atoms: _379  and  _381
REMARK  158  A    between atoms: _381  and  _382
REMARK  159  A    between atoms: _384  and  _386
REMARK  160  A    between atoms: _386  and  _387
REMARK  161  A    between atoms: _389  and  _391
REMARK  162  A    between atoms: _391  and  _392
REMARK  163  A    between atoms: _391  and  _394
REMARK  164  A    between atoms: _394  and  _395
REMARK  165  A    between atoms: _398  and  _400
REMARK  166  A    between atoms: _400  and  _401
REMARK  167  A    between atoms: _403  and  _405
REMARK  168  A    between atoms: _405  and  _406
REMARK  169  A    between atoms: _408  and  _410
REMARK  170  A    between atoms: _410  and  _411
REMARK  171  A    between atoms: _410  and  _413
REMARK  172  A    between atoms: _413  and  _414
REMARK  173  A    between atoms: _417  and  _419
REMARK  174  A    between atoms: _419  and  _420
REMARK  175  A    between atoms: _419  and  _422
REMARK  176  A    between atoms: _422  and  _423
REMARK  177  A    between atoms: _427  and  _428
REMARK  178  A    between atoms: _433  and  _435
REMARK  179  A    between atoms: _435  and  _436
REMARK  180  A    between atoms: _439  and  _441
REMARK  181  A    between atoms: _441  and  _442
REMARK  182  A    between atoms: _441  and  _444
REMARK  183  A    between atoms: _444  and  _445
REMARK  184  A    between atoms: _450  and  _452
REMARK  185  A    between atoms: _452  and  _453
REMARK  186  A    between atoms: _452  and  _455
REMARK  187  A    between atoms: _455  and  _456
REMARK  188  A    between atoms: _459  and  _461
REMARK  189  A    between atoms: _461  and  _462
REMARK  190  A    between atoms: _461  and  _464
REMARK  191  A    between atoms: _464  and  _465
REMARK  192  A    between atoms: _468  and  _470
REMARK  193  A    between atoms: _470  and  _471
REMARK  194  A    between atoms: _473  and  _475
REMARK  195  A    between atoms: _475  and  _476
REMARK  196  A    between atoms: _475  and  _478
REMARK  197  A    between atoms: _478  and  _479
REMARK  198  A    between atoms: _479  and  _480
REMARK  199  A    between atoms: _480  and  _481
REMARK  200  A    between atoms: _490  and  _492
REMARK  201  A    between atoms: _492  and  _493
REMARK  202  A    between atoms: _492  and  _495
REMARK  203  A    between atoms: _495  and  _496
REMARK                            x       y       z     vdW  Elec       q    Type
REMARK                         _______ _______ _______ _____ _____    ______ ____
ROOT
ATOM      1  CD  ARG A   1      17.568  19.185  12.576  0.00  0.00    +0.174 C 
ENDROOT
BRANCH   1   2
ATOM      2  NE  ARG A   1      16.847  18.076  12.024  0.00  0.00    -0.263 N 
ATOM      3  HE  ARG A   1      17.336  17.176  12.203  0.00  0.00    +0.259 HD
ATOM      4  CZ  ARG A   1      15.720  17.892  11.345  0.00  0.00    +0.377 C 
ATOM      5  NH2 ARG A   1      15.369  16.652  10.983  0.00  0.00    -0.289 N 
ATOM      6 HH21 ARG A   1      15.976  15.846  11.234  0.00  0.00    +0.255 HD
ATOM      7 HH22 ARG A   1      14.489  16.495  10.451  0.00  0.00    +0.255 HD
ATOM      8  NH1 ARG A   1      14.865  18.834  10.969  0.00  0.00    -0.130 NA
ATOM      9  HH1 ARG A   1      14.009  18.577  10.438  0.00  0.00    +0.306 HD
ENDBRANCH   1   2
BRANCH   1  10
ATOM     10  CG  ARG A   1      18.390  18.960  13.838  0.00  0.00    +0.045 C 
BRANCH  10  11
ATOM     11  CB  ARG A   1      17.517  18.444  14.930  0.00  0.00    +0.029 C 
BRANCH  11  12
ATOM     12  CA  ARG A   1      18.287  17.840  16.097  0.00  0.00    +0.133 C 
BRANCH  12  13
ATOM     13  N   ARG A   1      18.971  16.611  15.738  0.00  0.00    -0.239 NA
ATOM     14  H   ARG A   1      18.892  16.238  14.770  0.00  0.00    +0.142 HD
ENDBRANCH  12  13
BRANCH  12  15
ATOM     15  C   ARG A   1      17.340  17.605  17.241  0.00  0.00    +0.224 C 
ATOM     16  O   ARG A   1      16.620  16.573  17.245  0.00  0.00    -0.287 OA
ENDBRANCH  12  15
ENDBRANCH  11  12
ENDBRANCH  10  11
ENDBRANCH   1  10
TORSDOF 6
REMARK  Name = ../refined-set-2016/2idw/2idw_pocket.pdb
REMARK  203 active torsions:
REMARK  status: ('A' for Active; 'I' for Inactive)
REMARK    1  A    between atoms: _1  and  _3
REMARK    2  A    between atoms: _3  and  _4
REMARK    3  A    between atoms: _3  and  _6
REMARK    4  A    between atoms: _6  and  _7
REMARK    5  A    between atoms: _7  and  _8
REMARK    6  A    between atoms: _8  and  _9
REMARK    7  A    between atoms: _18  and  _20
REMARK    8  A    between atoms: _20  and  _21
REMARK    9  A    between atoms: _20  and  _23
REMARK   10  A    between atoms: _23  and  _24
REMARK   11  A    between atoms: _27  and  _29
REMARK   12  A    between atoms: _29  and  _30
REMARK   13  A    between atoms: _29  and  _32
REMARK   14  A    between atoms: _32  and  _33
REMARK   15  A    between atoms: _36  and  _38
REMARK   16  A    between atoms: _38  and  _39
REMARK   17  A    between atoms: _38  and  _41
REMARK   18  A    between atoms: _41  and  _42
REMARK   19  A    between atoms: _45  and  _47
REMARK   20  A    between atoms: _47  and  _48
REMARK   21  A    between atoms: _47  and  _50
REMARK   22  A    between atoms: _50  and  _51
REMARK   23  A    between atoms: _54  and  _56
REMARK   24  A    between atoms: _56  and  _57
REMARK   25  A    between atoms: _59  and  _61
REMARK   26  A    between atoms: _61  and  _62
REMARK   27  A    between atoms: _65  and  _67
REMARK   28  A    between atoms: _67  and  _68
REMARK   29  A    between atoms: _67  and  _70
REMARK   30  A    between atoms: _70  and  _71
REMARK   31  A    between atoms: _74  and  _76
REMARK   32  A    between atoms: _76  and  _77
REMARK   33  A    between atoms: _76  and  _79
REMARK   34  A    between atoms: _79  and  _80
REMARK   35  A    between atoms: _83  and  _85
REMARK   36  A    between atoms: _85  and  _86
REMARK   37  A    between atoms: _85  and  _88
REMARK   38  A    between atoms: _88  and  _89
REMARK   39  A    between atoms: _92  and  _94
REMARK   40  A    between atoms: _94  and  _95
REMARK   41  A    between atoms: _94  and  _97
REMARK   42  A    between atoms: _100  and  _102
REMARK   43  A    between atoms: _102  and  _103
REMARK   44  A    between atoms: _102  and  _105
REMARK   45  A    between atoms: _105  and  _106
REMARK   46  A    between atoms: _106  and  _107
REMARK   47  A    between atoms: _107  and  _108
REMARK   48  A    between atoms: _108  and  _109
REMARK   49  A    between atoms: _113  and  _115
REMARK   50  A    between atoms: _115  and  _116
REMARK   51  A    between atoms: _115  and  _118
REMARK   52  A    between atoms: _118  and  _119
REMARK   53  A    between atoms: _119  and  _120
REMARK   54  A    between atoms: _122  and  _124
REMARK   55  A    between atoms: _124  and  _125
REMARK   56  A    between atoms: _124  and  _127
REMARK   57  A    between atoms: _127  and  _128
REMARK   58  A    between atoms: _131  and  _133
REMARK   59  A    between atoms: _133  and  _134
REMARK   60  A    between atoms: _136  and  _138
REMARK   61  A    between atoms: _138  and  _139
REMARK   62  A    between atoms: _141  and  _143
REMARK   63  A    between atoms: _143  and  _144
REMARK   64  A    between atoms: _143  and  _146
REMARK   65  A    between atoms: _146  and  _147
REMARK   66  A    between atoms: _150  and  _152
REMARK   67  A    between atoms: _152  and  _153
REMARK   68  A    between atoms: _155  and  _157
REMARK   69  A    between atoms: _157  and  _158
REMARK   70  A    between atoms: _160  and  _162
REMARK   71  A    between atoms: _162  and  _163
REMARK   72  A    between atoms: _162  and  _165
REMARK   73  A    between atoms: _165  and  _166
REMARK   74  A    between atoms: _172  and  _174
REMARK   75  A    between atoms: _174  and  _175
REMARK   76  A    between atoms: _174  and  _177
REMARK   77  A    between atoms: _177  and  _178
REMARK   78  A    between atoms: _181  and  _183
REMARK   79  A    between atoms: _183  and  _184
REMARK   80  A    between atoms: _183  and  _186
REMARK   81  A    between atoms: _189  and  _191
REMARK   82  A    between atoms: _191  and  _192
REMARK   83  A    between atoms: _191  and  _194
REMARK   84  A    between atoms: _194  and  _195
REMARK   85  A    between atoms: _198  and  _200
REMARK   86  A    between atoms: _200  and  _201
REMARK   87  A    between atoms: _200  and  _203
REMARK   88  A    between atoms: _203  and  _204
REMARK   89  A    between atoms: _208  and  _209
REMARK   90  A    between atoms: _214  and  _216
REMARK   91  A    between atoms: _216  and  _217
REMARK   92  A    between atoms: _220  and  _222
REMARK   93  A    between atoms: _222  and  _223
REMARK   94  A    between atoms: _222  and  _225
REMARK   95  A    between atoms: _225  and  _226
REMARK   96  A    between atoms: _231  and  _233
REMARK   97  A    between atoms: _233  and  _234
REMARK   98  A    between atoms: _233  and  _236
REMARK   99  A    between atoms: _236  and  _237
REMARK  100  A    between atoms: _240  and  _242
REMARK  101  A    between atoms: _242  and  _243
REMARK  102  A    between atoms: _242  and  _245
REMARK  103  A    between atoms: _245  and  _246
REMARK  104  A    between atoms: _249  and  _251
REMARK  105  A    between atoms: _251  and  _252
REMARK  106  A    between atoms: _254  and  _256
REMARK  107  A    between atoms: _256  and  _257
REMARK  108  A    between atoms: _256  and  _259
REMARK  109  A    between atoms: _259  and  _260
REMARK  110  A    between atoms: _260  and  _261
REMARK  111  A    between atoms: _261  and  _262
REMARK  112  A    between atoms: _271  and  _273
REMARK  113  A    between atoms: _273  and  _274
REMARK  114  A    between atoms: _273  and  _276
REMARK  115  A    between atoms: _276  and  _277
REMARK  116  A    between atoms: _277  and  _278
REMARK  117  A    between atoms: _278  and  _279
REMARK  118  A    between atoms: _288  and  _290
REMARK  119  A    between atoms: _290  and  _291
REMARK  120  A    between atoms: _290  and  _293
REMARK  121  A    between atoms: _293  and  _294
REMARK  122  A    between atoms: _297  and  _299
REMARK  123  A    between atoms: _299  and  _300
REMARK  124  A    between atoms: _299  and  _302
REMARK  125  A    between atoms: _302  and  _303
REMARK  126  A    between atoms: _306  and  _308
REMARK  127  A    between atoms: _308  and  _309
REMARK  128  A    between atoms: _308  and  _311
REMARK  129  A    between atoms: _311  and  _312
REMARK  130  A    between atoms: _315  and  _317
REMARK  131  A    between atoms: _317  and  _318
REMARK  132  A    between atoms: _317  and  _320
REMARK  133  A    between atoms: _320  and  _321
REMARK  134  A    between atoms: _324  and  _326
REMARK  135  A    between atoms: _326  and  _327
REMARK  136  A    between atoms: _329  and  _331
REMARK  137  A    between atoms: _331  and  _332
REMARK  138  A    between atoms: _335  and  _337
REMARK  139  A    between atoms: _337  and  _338
REMARK  140  A    between atoms: _337  and  _340
REMARK  141  A    between atoms: _340  and  _341
REMARK  142  A    between atoms: _344  and  _346
REMARK  143  A    between atoms: _346  and  _347
REMARK  144  A    between atoms: _346  and  _349
REMARK  145  A    between atoms: _349  and  _350
REMARK  146  A    between atoms: _353  and  _355
REMARK  147  A    between atoms: _355  and  _356
REMARK  148  A    between atoms: _355  and  _358
REMARK  149  A    between atoms: _358  and  _359
REMARK  150  A    between atoms: _362  and  _364
REMARK  151  A    between atoms: _364  and  _365
REMARK  152  A    between atoms: _364  and  _367
REMARK  153  A    between atoms: _370  and  _372
REMARK  154  A    between atoms: _372  and  _373
REMARK  155  A    between atoms: _372  and  _375
REMARK  156  A    between atoms: _375  and  _376
REMARK  157  A    between atoms: _379  and  _381
REMARK  158  A    between atoms: _381  and  _382
REMARK  159  A    between atoms: _384  and  _386
REMARK  160  A    between atoms: _386  and  _387
REMARK  161  A    between atoms: _389  and  _391
REMARK  162  A    between atoms: _391  and  _392
REMARK  163  A    between atoms: _391  and  _394
REMARK  164  A    between atoms: _394  and  _395
REMARK  165  A    between atoms: _398  and  _400
REMARK  166  A    between atoms: _400  and  _401
REMARK  167  A    between atoms: _403  and  _405
REMARK  168  A    between atoms: _405  and  _406
REMARK  169  A    between atoms: _408  and  _410
REMARK  170  A    between atoms: _410  and  _411
REMARK  171  A    between atoms: _410  and  _413
REMARK  172  A    between atoms: _413  and  _414
REMARK  173  A    between atoms: _417  and  _419
REMARK  174  A    between atoms: _419  and  _420
REMARK  175  A    between atoms: _419  and  _422
REMARK  176  A    between atoms: _422  and  _423
REMARK  177  A    between atoms: _427  and  _428
REMARK  178  A    between atoms: _433  and  _435
REMARK  179  A    between atoms: _435  and  _436
REMARK  180  A    between atoms: _439  and  _441
REMARK  181  A    between atoms: _441  and  _442
REMARK  182  A    between atoms: _441  and  _444
REMARK  183  A    between atoms: _444  and  _445
REMARK  184  A    between atoms: _450  and  _452
REMARK  185  A    between atoms: _452  and  _453
REMARK  186  A    between atoms: _452  and  _455
REMARK  187  A    between atoms: _455  and  _456
REMARK  188  A    between atoms: _459  and  _461
REMARK  189  A    between atoms: _461  and  _462
REMARK  190  A    between atoms: _461  and  _464
REMARK  191  A    between atoms: _464  and  _465
REMARK  192  A    between atoms: _468  and  _470
REMARK  193  A    between atoms: _470  and  _471
REMARK  194  A    between atoms: _473  and  _475
REMARK  195  A    between atoms: _475  and  _476
REMARK  196  A    between atoms: _475  and  _478
REMARK  197  A    between atoms: _478  and  _479
REMARK  198  A    between atoms: _479  and  _480
REMARK  199  A    between atoms: _480  and  _481
REMARK  200  A    between atoms: _490  and  _492
REMARK  201  A    between atoms: _492  and  _493
REMARK  202  A    between atoms: _492  and  _495
REMARK  203  A    between atoms: _495  and  _496
REMARK                            x       y       z     vdW  Elec       q    Type
REMARK                         _______ _______ _______ _____ _____    ______ ____
ROOT
ATOM      1  H   HOH     0      15.051  19.830  11.205  0.00  0.00    +0.253 HD
ATOM      2  O   HOH     1      15.522  20.195  10.831  0.00  0.00    -0.253 OA
ENDROOT
TORSDOF 0
REMARK  Name = ../refined-set-2016/2idw/2idw_pocket.pdb
REMARK  203 active torsions:
REMARK  status: ('A' for Active; 'I' for Inactive)
REMARK    1  A    between atoms: _1  and  _3
REMARK    2  A    between atoms: _3  and  _4
REMARK    3  A    between atoms: _3  and  _6
REMARK    4  A    between atoms: _6  and  _7
REMARK    5  A    between atoms: _7  and  _8
REMARK    6  A    between atoms: _8  and  _9
REMARK    7  A    between atoms: _18  and  _20
REMARK    8  A    between atoms: _20  and  _21
REMARK    9  A    between atoms: _20  and  _23
REMARK   10  A    between atoms: _23  and  _24
REMARK   11  A    between atoms: _27  and  _29
REMARK   12  A    between atoms: _29  and  _30
REMARK   13  A    between atoms: _29  and  _32
REMARK   14  A    between atoms: _32  and  _33
REMARK   15  A    between atoms: _36  and  _38
REMARK   16  A    between atoms: _38  and  _39
REMARK   17  A    between atoms: _38  and  _41
REMARK   18  A    between atoms: _41  and  _42
REMARK   19  A    between atoms: _45  and  _47
REMARK   20  A    between atoms: _47  and  _48
REMARK   21  A    between atoms: _47  and  _50
REMARK   22  A    between atoms: _50  and  _51
REMARK   23  A    between atoms: _54  and  _56
REMARK   24  A    between atoms: _56  and  _57
REMARK   25  A    between atoms: _59  and  _61
REMARK   26  A    between atoms: _61  and  _62
REMARK   27  A    between atoms: _65  and  _67
REMARK   28  A    between atoms: _67  and  _68
REMARK   29  A    between atoms: _67  and  _70
REMARK   30  A    between atoms: _70  and  _71
REMARK   31  A    between atoms: _74  and  _76
REMARK   32  A    between atoms: _76  and  _77
REMARK   33  A    between atoms: _76  and  _79
REMARK   34  A    between atoms: _79  and  _80
REMARK   35  A    between atoms: _83  and  _85
REMARK   36  A    between atoms: _85  and  _86
REMARK   37  A    between atoms: _85  and  _88
REMARK   38  A    between atoms: _88  and  _89
REMARK   39  A    between atoms: _92  and  _94
REMARK   40  A    between atoms: _94  and  _95
REMARK   41  A    between atoms: _94  and  _97
REMARK   42  A    between atoms: _100  and  _102
REMARK   43  A    between atoms: _102  and  _103
REMARK   44  A    between atoms: _102  and  _105
REMARK   45  A    between atoms: _105  and  _106
REMARK   46  A    between atoms: _106  and  _107
REMARK   47  A    between atoms: _107  and  _108
REMARK   48  A    between atoms: _108  and  _109
REMARK   49  A    between atoms: _113  and  _115
REMARK   50  A    between atoms: _115  and  _116
REMARK   51  A    between atoms: _115  and  _118
REMARK   52  A    between atoms: _118  and  _119
REMARK   53  A    between atoms: _119  and  _120
REMARK   54  A    between atoms: _122  and  _124
REMARK   55  A    between atoms: _124  and  _125
REMARK   56  A    between atoms: _124  and  _127
REMARK   57  A    between atoms: _127  and  _128
REMARK   58  A    between atoms: _131  and  _133
REMARK   59  A    between atoms: _133  and  _134
REMARK   60  A    between atoms: _136  and  _138
REMARK   61  A    between atoms: _138  and  _139
REMARK   62  A    between atoms: _141  and  _143
REMARK   63  A    between atoms: _143  and  _144
REMARK   64  A    between atoms: _143  and  _146
REMARK   65  A    between atoms: _146  and  _147
REMARK   66  A    between atoms: _150  and  _152
REMARK   67  A    between atoms: _152  and  _153
REMARK   68  A    between atoms: _155  and  _157
REMARK   69  A    between atoms: _157  and  _158
REMARK   70  A    between atoms: _160  and  _162
REMARK   71  A    between atoms: _162  and  _163
REMARK   72  A    between atoms: _162  and  _165
REMARK   73  A    between atoms: _165  and  _166
REMARK   74  A    between atoms: _172  and  _174
REMARK   75  A    between atoms: _174  and  _175
REMARK   76  A    between atoms: _174  and  _177
REMARK   77  A    between atoms: _177  and  _178
REMARK   78  A    between atoms: _181  and  _183
REMARK   79  A    between atoms: _183  and  _184
REMARK   80  A    between atoms: _183  and  _186
REMARK   81  A    between atoms: _189  and  _191
REMARK   82  A    between atoms: _191  and  _192
REMARK   83  A    between atoms: _191  and  _194
REMARK   84  A    between atoms: _194  and  _195
REMARK   85  A    between atoms: _198  and  _200
REMARK   86  A    between atoms: _200  and  _201
REMARK   87  A    between atoms: _200  and  _203
REMARK   88  A    between atoms: _203  and  _204
REMARK   89  A    between atoms: _208  and  _209
REMARK   90  A    between atoms: _214  and  _216
REMARK   91  A    between atoms: _216  and  _217
REMARK   92  A    between atoms: _220  and  _222
REMARK   93  A    between atoms: _222  and  _223
REMARK   94  A    between atoms: _222  and  _225
REMARK   95  A    between atoms: _225  and  _226
REMARK   96  A    between atoms: _231  and  _233
REMARK   97  A    between atoms: _233  and  _234
REMARK   98  A    between atoms: _233  and  _236
REMARK   99  A    between atoms: _236  and  _237
REMARK  100  A    between atoms: _240  and  _242
REMARK  101  A    between atoms: _242  and  _243
REMARK  102  A    between atoms: _242  and  _245
REMARK  103  A    between atoms: _245  and  _246
REMARK  104  A    between atoms: _249  and  _251
REMARK  105  A    between atoms: _251  and  _252
REMARK  106  A    between atoms: _254  and  _256
REMARK  107  A    between atoms: _256  and  _257
REMARK  108  A    between atoms: _256  and  _259
REMARK  109  A    between atoms: _259  and  _260
REMARK  110  A    between atoms: _260  and  _261
REMARK  111  A    between atoms: _261  and  _262
REMARK  112  A    between atoms: _271  and  _273
REMARK  113  A    between atoms: _273  and  _274
REMARK  114  A    between atoms: _273  and  _276
REMARK  115  A    between atoms: _276  and  _277
REMARK  116  A    between atoms: _277  and  _278
REMARK  117  A    between atoms: _278  and  _279
REMARK  118  A    between atoms: _288  and  _290
REMARK  119  A    between atoms: _290  and  _291
REMARK  120  A    between atoms: _290  and  _293
REMARK  121  A    between atoms: _293  and  _294
REMARK  122  A    between atoms: _297  and  _299
REMARK  123  A    between atoms: _299  and  _300
REMARK  124  A    between atoms: _299  and  _302
REMARK  125  A    between atoms: _302  and  _303
REMARK  126  A    between atoms: _306  and  _308
REMARK  127  A    between atoms: _308  and  _309
REMARK  128  A    between atoms: _308  and  _311
REMARK  129  A    between atoms: _311  and  _312
REMARK  130  A    between atoms: _315  and  _317
REMARK  131  A    between atoms: _317  and  _318
REMARK  132  A    between atoms: _317  and  _320
REMARK  133  A    between atoms: _320  and  _321
REMARK  134  A    between atoms: _324  and  _326
REMARK  135  A    between atoms: _326  and  _327
REMARK  136  A    between atoms: _329  and  _331
REMARK  137  A    between atoms: _331  and  _332
REMARK  138  A    between atoms: _335  and  _337
REMARK  139  A    between atoms: _337  and  _338
REMARK  140  A    between atoms: _337  and  _340
REMARK  141  A    between atoms: _340  and  _341
REMARK  142  A    between atoms: _344  and  _346
REMARK  143  A    between atoms: _346  and  _347
REMARK  144  A    between atoms: _346  and  _349
REMARK  145  A    between atoms: _349  and  _350
REMARK  146  A    between atoms: _353  and  _355
REMARK  147  A    between atoms: _355  and  _356
REMARK  148  A    between atoms: _355  and  _358
REMARK  149  A    between atoms: _358  and  _359
REMARK  150  A    between atoms: _362  and  _364
REMARK  151  A    between atoms: _364  and  _365
REMARK  152  A    between atoms: _364  and  _367
REMARK  153  A    between atoms: _370  and  _372
REMARK  154  A    between atoms: _372  and  _373
REMARK  155  A    between atoms: _372  and  _375
REMARK  156  A    between atoms: _375  and  _376
REMARK  157  A    between atoms: _379  and  _381
REMARK  158  A    between atoms: _381  and  _382
REMARK  159  A    between atoms: _384  and  _386
REMARK  160  A    between atoms: _386  and  _387
REMARK  161  A    between atoms: _389  and  _391
REMARK  162  A    between atoms: _391  and  _392
REMARK  163  A    between atoms: _391  and  _394
REMARK  164  A    between atoms: _394  and  _395
REMARK  165  A    between atoms: _398  and  _400
REMARK  166  A    between atoms: _400  and  _401
REMARK  167  A    between atoms: _403  and  _405
REMARK  168  A    between atoms: _405  and  _406
REMARK  169  A    between atoms: _408  and  _410
REMARK  170  A    between atoms: _410  and  _411
REMARK  171  A    between atoms: _410  and  _413
REMARK  172  A    between atoms: _413  and  _414
REMARK  173  A    between atoms: _417  and  _419
REMARK  174  A    between atoms: _419  and  _420
REMARK  175  A    between atoms: _419  and  _422
REMARK  176  A    between atoms: _422  and  _423
REMARK  177  A    between atoms: _427  and  _428
REMARK  178  A    between atoms: _433  and  _435
REMARK  179  A    between atoms: _435  and  _436
REMARK  180  A    between atoms: _439  and  _441
REMARK  181  A    between atoms: _441  and  _442
REMARK  182  A    between atoms: _441  and  _444
REMARK  183  A    between atoms: _444  and  _445
REMARK  184  A    between atoms: _450  and  _452
REMARK  185  A    between atoms: _452  and  _453
REMARK  186  A    between atoms: _452  and  _455
REMARK  187  A    between atoms: _455  and  _456
REMARK  188  A    between atoms: _459  and  _461
REMARK  189  A    between atoms: _461  and  _462
REMARK  190  A    between atoms: _461  and  _464
REMARK  191  A    between atoms: _464  and  _465
REMARK  192  A    between atoms: _468  and  _470
REMARK  193  A    between atoms: _470  and  _471
REMARK  194  A    between atoms: _473  and  _475
REMARK  195  A    between atoms: _475  and  _476
REMARK  196  A    between atoms: _475  and  _478
REMARK  197  A    between atoms: _478  and  _479
REMARK  198  A    between atoms: _479  and  _480
REMARK  199  A    between atoms: _480  and  _481
REMARK  200  A    between atoms: _490  and  _492
REMARK  201  A    between atoms: _492  and  _493
REMARK  202  A    between atoms: _492  and  _495
REMARK  203  A    between atoms: _495  and  _496
REMARK                            x       y       z     vdW  Elec       q    Type
REMARK                         _______ _______ _______ _____ _____    ______ ____
ROOT
ATOM      1  C   GLY A   5      19.790  30.885  20.629  0.00  0.00    +0.243 C 
ATOM      2  N   ALA A   6      18.500  30.679  20.853  0.00  0.00    -0.297 N 
ATOM      3  H   ALA A   6      18.212  29.811  21.349  0.00  0.00    +0.150 HD
ATOM      4  O   GLY A   5      20.207  31.897  20.058  0.00  0.00    -0.273 OA
ENDROOT
BRANCH   2   5
ATOM      5  CA  ALA A   6      17.474  31.613  20.436  0.00  0.00    +0.149 C 
ATOM      6  CB  ALA A   6      16.376  30.873  19.715  0.00  0.00    +0.031 C 
BRANCH   5   7
ATOM      7  C   ALA A   6      16.896  32.318  21.667  0.00  0.00    +0.241 C 
ATOM      8  O   ALA A   6      16.441  31.680  22.607  0.00  0.00    -0.273 OA
ATOM      9  N   ASP A   7      16.908  33.655  21.651  0.00  0.00    -0.297 N 
ATOM     10  H   ASP A   7      17.338  34.171  20.857  0.00  0.00    +0.150 HD
BRANCH   9  11
ATOM     11  CA  ASP A   7      16.300  34.388  22.782  0.00  0.00    +0.160 C 
BRANCH  11  12
ATOM     12  C   ASP A   7      14.801  34.171  22.839  0.00  0.00    +0.241 C 
ATOM     13  O   ASP A   7      14.201  34.106  23.925  0.00  0.00    -0.273 OA
ATOM     14  N   ASP A   8      14.196  34.131  21.662  0.00  0.00    -0.297 N 
ATOM     15  H   ASP A   8      14.798  34.075  20.816  0.00  0.00    +0.150 HD
BRANCH  14  16
ATOM     16  CA  ASP A   8      12.749  34.159  21.458  0.00  0.00    +0.160 C 
BRANCH  16  17
ATOM     17  C   ASP A   8      12.318  32.959  20.667  0.00  0.00    +0.241 C 
ATOM     18  N   THR A   9      11.075  32.618  20.724  0.00  0.00    -0.295 N 
ATOM     19  H   THR A   9      10.461  33.191  21.337  0.00  0.00    +0.150 HD
ATOM     20  O   ASP A   8      13.121  32.340  19.964  0.00  0.00    -0.273 OA
BRANCH  18  21
ATOM     21  CA  THR A   9      10.448  31.518  20.020  0.00  0.00    +0.176 C 
BRANCH  21  22
ATOM     22  C   THR A   9       9.918  32.024  18.680  0.00  0.00    +0.243 C 
ATOM     23  O   THR A   9       9.228  33.066  18.645  0.00  0.00    -0.273 OA
ATOM     24  N   VAL A  10      10.223  31.284  17.624  0.00  0.00    -0.298 N 
ATOM     25  H   VAL A  10      10.741  30.396  17.779  0.00  0.00    +0.150 HD
BRANCH  24  26
ATOM     26  CA  VAL A  10       9.873  31.646  16.261  0.00  0.00    +0.137 C 
BRANCH  26  27
ATOM     27  CB  VAL A  10      11.098  32.064  15.443  0.00  0.00    +0.026 C 
ATOM     28  CG2 VAL A  10      12.116  32.888  16.234  0.00  0.00    +0.002 C 
ATOM     29  CG1 VAL A  10      10.593  32.779  14.163  0.00  0.00    +0.002 C 
ENDBRANCH  26  27
BRANCH  26  30
ATOM     30  C   VAL A  10       9.183  30.473  15.614  0.00  0.00    +0.227 C 
ATOM     31  O   VAL A  10       9.753  29.382  15.580  0.00  0.00    -0.286 OA
ENDBRANCH  26  30
ENDBRANCH  24  26
ENDBRANCH  21  22
BRANCH  21  32
ATOM     32  CB  THR A   9       9.321  30.978  20.908  0.00  0.00    +0.137 C 
ATOM     33  CG2 THR A   9       8.476  29.937  20.207  0.00  0.00    +0.034 C 
BRANCH  32  34
ATOM     34  OG1 THR A   9       9.943  30.370  22.062  0.00  0.00    -0.382 OA
ATOM     35  HG1 THR A   9      10.474  31.051  22.546  0.00  0.00    +0.210 HD
ENDBRANCH  32  34
ENDBRANCH  21  32
ENDBRANCH  18  21
ENDBRANCH  16  17
BRANCH  16  36
ATOM     36  CB  ASP A   8      12.410  35.386  20.577  0.00  0.00    +0.143 C 
BRANCH  36  37
ATOM     37  CG  ASP A   8      13.042  36.697  20.888  0.00  0.00    +0.367 C 
ATOM     38  OD2 ASP A   8      12.892  37.115  22.085  0.00  0.00    -0.246 OA
ATOM     39  OD1 ASP A   8      13.670  37.404  20.041  0.00  0.00    -0.246 OA
ENDBRANCH  36  37
ENDBRANCH  16  36
ENDBRANCH  14  16
ENDBRANCH  11  12
BRANCH  11  40
ATOM     40  CB  ASP A   7      16.565  35.895  22.645  0.00  0.00    +0.143 C 
BRANCH  40  41
ATOM     41  CG  ASP A   7      17.996  36.336  22.759  0.00  0.00    +0.367 C 
ATOM     42  OD2 ASP A   7      18.889  35.626  23.272  0.00  0.00    -0.246 OA
ATOM     43  OD1 ASP A   7      18.242  37.507  22.306  0.00  0.00    -0.246 OA
ENDBRANCH  40  41
ENDBRANCH  11  40
ENDBRANCH   9  11
ENDBRANCH   5   7
ENDBRANCH   2   5
BRANCH   1  44
ATOM     44  CA  GLY A   5      20.793  29.812  21.032  0.00  0.00    +0.176 C 
BRANCH  44  47
ATOM     45  C   THR A   4      19.951  28.660  23.000  0.00  0.00    +0.243 C 
ATOM     46  O   THR A   4      20.224  29.589  23.750  0.00  0.00    -0.273 OA
ATOM     47  N   GLY A   5      20.188  28.662  21.701  0.00  0.00    -0.295 N 
ATOM     48  H   GLY A   5      19.938  27.823  21.139  0.00  0.00    +0.150 HD
BRANCH  45  49
ATOM     49  CA  THR A   4      19.310  27.422  23.596  0.00  0.00    +0.176 C 
BRANCH  49  51
ATOM     50  C   ASP A   3      17.602  26.965  21.956  0.00  0.00    +0.241 C 
ATOM     51  N   THR A   4      18.664  26.569  22.634  0.00  0.00    -0.295 N 
ATOM     52  H   THR A   4      19.044  25.615  22.468  0.00  0.00    +0.150 HD
ATOM     53  O   ASP A   3      17.087  28.080  22.132  0.00  0.00    -0.273 OA
BRANCH  50  54
ATOM     54  CA  ASP A   3      17.067  25.992  20.910  0.00  0.00    +0.160 C 
BRANCH  54  56
ATOM     55  C   LEU A   2      15.936  23.889  21.421  0.00  0.00    +0.241 C 
ATOM     56  N   ASP A   3      15.920  25.221  21.387  0.00  0.00    -0.297 N 
ATOM     57  H   ASP A   3      15.069  25.725  21.708  0.00  0.00    +0.150 HD
ATOM     58  O   LEU A   2      16.959  23.219  21.279  0.00  0.00    -0.273 OA
BRANCH  55  59
ATOM     59  CA  LEU A   2      14.603  23.163  21.615  0.00  0.00    +0.149 C 
BRANCH  59  61
ATOM     60  C   LEU A   1      13.736  23.266  19.320  0.00  0.00    +0.238 C 
ATOM     61  N   LEU A   2      14.261  22.574  20.316  0.00  0.00    -0.297 N 
ATOM     62  H   LEU A   2      14.441  21.560  20.171  0.00  0.00    +0.150 HD
ATOM     63  O   LEU A   1      13.323  24.418  19.506  0.00  0.00    -0.274 OA
BRANCH  60  64
ATOM     64  CA  LEU A   1      13.677  22.657  17.942  0.00  0.00    +0.145 C 
BRANCH  64  65
ATOM     65  N   LEU A   1      12.379  22.788  17.319  0.00  0.00    -0.238 NA
ATOM     66  H   LEU A   1      12.228  23.576  16.657  0.00  0.00    +0.142 HD
ENDBRANCH  64  65
BRANCH  64  67
ATOM     67  CB  LEU A   1      14.740  23.459  17.176  0.00  0.00    +0.026 C 
BRANCH  67  68
ATOM     68  CG  LEU A   1      15.092  22.961  15.822  0.00  0.00    +0.002 C 
ATOM     69  CD2 LEU A   1      15.967  21.693  15.926  0.00  0.00    +0.000 C 
ATOM     70  CD1 LEU A   1      15.860  24.032  15.059  0.00  0.00    +0.000 C 
ENDBRANCH  67  68
ENDBRANCH  64  67
ENDBRANCH  60  64
ENDBRANCH  59  61
BRANCH  59  71
ATOM     71  CB  LEU A   2      14.673  22.079  22.664  0.00  0.00    +0.029 C 
BRANCH  71  72
ATOM     72  CG  LEU A   2      13.378  21.287  22.917  0.00  0.00    +0.002 C 
ATOM     73  CD2 LEU A   2      13.640  20.260  24.021  0.00  0.00    +0.000 C 
ATOM     74  CD1 LEU A   2      12.200  22.195  23.229  0.00  0.00    +0.000 C 
ENDBRANCH  71  72
ENDBRANCH  59  71
ENDBRANCH  55  59
ENDBRANCH  54  56
BRANCH  54  75
ATOM     75  CB  ASP A   3      16.655  26.766  19.664  0.00  0.00    +0.143 C 
BRANCH  75  76
ATOM     76  CG  ASP A   3      17.851  27.355  19.004  0.00  0.00    +0.367 C 
ATOM     77  OD2 ASP A   3      18.989  27.267  19.563  0.00  0.00    -0.246 OA
ATOM     78  OD1 ASP A   3      17.670  27.886  17.874  0.00  0.00    -0.246 OA
ENDBRANCH  75  76
ENDBRANCH  54  75
ENDBRANCH  50  54
ENDBRANCH  49  51
BRANCH  49  79
ATOM     79  CB  THR A   4      20.379  26.622  24.345  0.00  0.00    +0.137 C 
ATOM     80  CG2 THR A   4      19.777  25.386  25.056  0.00  0.00    +0.034 C 
BRANCH  79  81
ATOM     81  OG1 THR A   4      21.405  26.181  23.453  0.00  0.00    -0.382 OA
ATOM     82  HG1 THR A   4      21.833  26.967  23.030  0.00  0.00    +0.210 HD
ENDBRANCH  79  81
ENDBRANCH  49  79
ENDBRANCH  45  49
ENDBRANCH  44  47
ENDBRANCH   1  44
TORSDOF 35
REMARK  Name = ../refined-set-2016/2idw/2idw_pocket.pdb
REMARK  203 active torsions:
REMARK  status: ('A' for Active; 'I' for Inactive)
REMARK    1  A    between atoms: _1  and  _3
REMARK    2  A    between atoms: _3  and  _4
REMARK    3  A    between atoms: _3  and  _6
REMARK    4  A    between atoms: _6  and  _7
REMARK    5  A    between atoms: _7  and  _8
REMARK    6  A    between atoms: _8  and  _9
REMARK    7  A    between atoms: _18  and  _20
REMARK    8  A    between atoms: _20  and  _21
REMARK    9  A    between atoms: _20  and  _23
REMARK   10  A    between atoms: _23  and  _24
REMARK   11  A    between atoms: _27  and  _29
REMARK   12  A    between atoms: _29  and  _30
REMARK   13  A    between atoms: _29  and  _32
REMARK   14  A    between atoms: _32  and  _33
REMARK   15  A    between atoms: _36  and  _38
REMARK   16  A    between atoms: _38  and  _39
REMARK   17  A    between atoms: _38  and  _41
REMARK   18  A    between atoms: _41  and  _42
REMARK   19  A    between atoms: _45  and  _47
REMARK   20  A    between atoms: _47  and  _48
REMARK   21  A    between atoms: _47  and  _50
REMARK   22  A    between atoms: _50  and  _51
REMARK   23  A    between atoms: _54  and  _56
REMARK   24  A    between atoms: _56  and  _57
REMARK   25  A    between atoms: _59  and  _61
REMARK   26  A    between atoms: _61  and  _62
REMARK   27  A    between atoms: _65  and  _67
REMARK   28  A    between atoms: _67  and  _68
REMARK   29  A    between atoms: _67  and  _70
REMARK   30  A    between atoms: _70  and  _71
REMARK   31  A    between atoms: _74  and  _76
REMARK   32  A    between atoms: _76  and  _77
REMARK   33  A    between atoms: _76  and  _79
REMARK   34  A    between atoms: _79  and  _80
REMARK   35  A    between atoms: _83  and  _85
REMARK   36  A    between atoms: _85  and  _86
REMARK   37  A    between atoms: _85  and  _88
REMARK   38  A    between atoms: _88  and  _89
REMARK   39  A    between atoms: _92  and  _94
REMARK   40  A    between atoms: _94  and  _95
REMARK   41  A    between atoms: _94  and  _97
REMARK   42  A    between atoms: _100  and  _102
REMARK   43  A    between atoms: _102  and  _103
REMARK   44  A    between atoms: _102  and  _105
REMARK   45  A    between atoms: _105  and  _106
REMARK   46  A    between atoms: _106  and  _107
REMARK   47  A    between atoms: _107  and  _108
REMARK   48  A    between atoms: _108  and  _109
REMARK   49  A    between atoms: _113  and  _115
REMARK   50  A    between atoms: _115  and  _116
REMARK   51  A    between atoms: _115  and  _118
REMARK   52  A    between atoms: _118  and  _119
REMARK   53  A    between atoms: _119  and  _120
REMARK   54  A    between atoms: _122  and  _124
REMARK   55  A    between atoms: _124  and  _125
REMARK   56  A    between atoms: _124  and  _127
REMARK   57  A    between atoms: _127  and  _128
REMARK   58  A    between atoms: _131  and  _133
REMARK   59  A    between atoms: _133  and  _134
REMARK   60  A    between atoms: _136  and  _138
REMARK   61  A    between atoms: _138  and  _139
REMARK   62  A    between atoms: _141  and  _143
REMARK   63  A    between atoms: _143  and  _144
REMARK   64  A    between atoms: _143  and  _146
REMARK   65  A    between atoms: _146  and  _147
REMARK   66  A    between atoms: _150  and  _152
REMARK   67  A    between atoms: _152  and  _153
REMARK   68  A    between atoms: _155  and  _157
REMARK   69  A    between atoms: _157  and  _158
REMARK   70  A    between atoms: _160  and  _162
REMARK   71  A    between atoms: _162  and  _163
REMARK   72  A    between atoms: _162  and  _165
REMARK   73  A    between atoms: _165  and  _166
REMARK   74  A    between atoms: _172  and  _174
REMARK   75  A    between atoms: _174  and  _175
REMARK   76  A    between atoms: _174  and  _177
REMARK   77  A    between atoms: _177  and  _178
REMARK   78  A    between atoms: _181  and  _183
REMARK   79  A    between atoms: _183  and  _184
REMARK   80  A    between atoms: _183  and  _186
REMARK   81  A    between atoms: _189  and  _191
REMARK   82  A    between atoms: _191  and  _192
REMARK   83  A    between atoms: _191  and  _194
REMARK   84  A    between atoms: _194  and  _195
REMARK   85  A    between atoms: _198  and  _200
REMARK   86  A    between atoms: _200  and  _201
REMARK   87  A    between atoms: _200  and  _203
REMARK   88  A    between atoms: _203  and  _204
REMARK   89  A    between atoms: _208  and  _209
REMARK   90  A    between atoms: _214  and  _216
REMARK   91  A    between atoms: _216  and  _217
REMARK   92  A    between atoms: _220  and  _222
REMARK   93  A    between atoms: _222  and  _223
REMARK   94  A    between atoms: _222  and  _225
REMARK   95  A    between atoms: _225  and  _226
REMARK   96  A    between atoms: _231  and  _233
REMARK   97  A    between atoms: _233  and  _234
REMARK   98  A    between atoms: _233  and  _236
REMARK   99  A    between atoms: _236  and  _237
REMARK  100  A    between atoms: _240  and  _242
REMARK  101  A    between atoms: _242  and  _243
REMARK  102  A    between atoms: _242  and  _245
REMARK  103  A    between atoms: _245  and  _246
REMARK  104  A    between atoms: _249  and  _251
REMARK  105  A    between atoms: _251  and  _252
REMARK  106  A    between atoms: _254  and  _256
REMARK  107  A    between atoms: _256  and  _257
REMARK  108  A    between atoms: _256  and  _259
REMARK  109  A    between atoms: _259  and  _260
REMARK  110  A    between atoms: _260  and  _261
REMARK  111  A    between atoms: _261  and  _262
REMARK  112  A    between atoms: _271  and  _273
REMARK  113  A    between atoms: _273  and  _274
REMARK  114  A    between atoms: _273  and  _276
REMARK  115  A    between atoms: _276  and  _277
REMARK  116  A    between atoms: _277  and  _278
REMARK  117  A    between atoms: _278  and  _279
REMARK  118  A    between atoms: _288  and  _290
REMARK  119  A    between atoms: _290  and  _291
REMARK  120  A    between atoms: _290  and  _293
REMARK  121  A    between atoms: _293  and  _294
REMARK  122  A    between atoms: _297  and  _299
REMARK  123  A    between atoms: _299  and  _300
REMARK  124  A    between atoms: _299  and  _302
REMARK  125  A    between atoms: _302  and  _303
REMARK  126  A    between atoms: _306  and  _308
REMARK  127  A    between atoms: _308  and  _309
REMARK  128  A    between atoms: _308  and  _311
REMARK  129  A    between atoms: _311  and  _312
REMARK  130  A    between atoms: _315  and  _317
REMARK  131  A    between atoms: _317  and  _318
REMARK  132  A    between atoms: _317  and  _320
REMARK  133  A    between atoms: _320  and  _321
REMARK  134  A    between atoms: _324  and  _326
REMARK  135  A    between atoms: _326  and  _327
REMARK  136  A    between atoms: _329  and  _331
REMARK  137  A    between atoms: _331  and  _332
REMARK  138  A    between atoms: _335  and  _337
REMARK  139  A    between atoms: _337  and  _338
REMARK  140  A    between atoms: _337  and  _340
REMARK  141  A    between atoms: _340  and  _341
REMARK  142  A    between atoms: _344  and  _346
REMARK  143  A    between atoms: _346  and  _347
REMARK  144  A    between atoms: _346  and  _349
REMARK  145  A    between atoms: _349  and  _350
REMARK  146  A    between atoms: _353  and  _355
REMARK  147  A    between atoms: _355  and  _356
REMARK  148  A    between atoms: _355  and  _358
REMARK  149  A    between atoms: _358  and  _359
REMARK  150  A    between atoms: _362  and  _364
REMARK  151  A    between atoms: _364  and  _365
REMARK  152  A    between atoms: _364  and  _367
REMARK  153  A    between atoms: _370  and  _372
REMARK  154  A    between atoms: _372  and  _373
REMARK  155  A    between atoms: _372  and  _375
REMARK  156  A    between atoms: _375  and  _376
REMARK  157  A    between atoms: _379  and  _381
REMARK  158  A    between atoms: _381  and  _382
REMARK  159  A    between atoms: _384  and  _386
REMARK  160  A    between atoms: _386  and  _387
REMARK  161  A    between atoms: _389  and  _391
REMARK  162  A    between atoms: _391  and  _392
REMARK  163  A    between atoms: _391  and  _394
REMARK  164  A    between atoms: _394  and  _395
REMARK  165  A    between atoms: _398  and  _400
REMARK  166  A    between atoms: _400  and  _401
REMARK  167  A    between atoms: _403  and  _405
REMARK  168  A    between atoms: _405  and  _406
REMARK  169  A    between atoms: _408  and  _410
REMARK  170  A    between atoms: _410  and  _411
REMARK  171  A    between atoms: _410  and  _413
REMARK  172  A    between atoms: _413  and  _414
REMARK  173  A    between atoms: _417  and  _419
REMARK  174  A    between atoms: _419  and  _420
REMARK  175  A    between atoms: _419  and  _422
REMARK  176  A    between atoms: _422  and  _423
REMARK  177  A    between atoms: _427  and  _428
REMARK  178  A    between atoms: _433  and  _435
REMARK  179  A    between atoms: _435  and  _436
REMARK  180  A    between atoms: _439  and  _441
REMARK  181  A    between atoms: _441  and  _442
REMARK  182  A    between atoms: _441  and  _444
REMARK  183  A    between atoms: _444  and  _445
REMARK  184  A    between atoms: _450  and  _452
REMARK  185  A    between atoms: _452  and  _453
REMARK  186  A    between atoms: _452  and  _455
REMARK  187  A    between atoms: _455  and  _456
REMARK  188  A    between atoms: _459  and  _461
REMARK  189  A    between atoms: _461  and  _462
REMARK  190  A    between atoms: _461  and  _464
REMARK  191  A    between atoms: _464  and  _465
REMARK  192  A    between atoms: _468  and  _470
REMARK  193  A    between atoms: _470  and  _471
REMARK  194  A    between atoms: _473  and  _475
REMARK  195  A    between atoms: _475  and  _476
REMARK  196  A    between atoms: _475  and  _478
REMARK  197  A    between atoms: _478  and  _479
REMARK  198  A    between atoms: _479  and  _480
REMARK  199  A    between atoms: _480  and  _481
REMARK  200  A    between atoms: _490  and  _492
REMARK  201  A    between atoms: _492  and  _493
REMARK  202  A    between atoms: _492  and  _495
REMARK  203  A    between atoms: _495  and  _496
REMARK                            x       y       z     vdW  Elec       q    Type
REMARK                         _______ _______ _______ _____ _____    ______ ____
ROOT
ATOM      1  C   GLY A   5      21.581  35.279  11.233  0.00  0.00    +0.243 C 
ATOM      2  N   ILE A   6      22.101  34.069  11.030  0.00  0.00    -0.297 N 
ATOM      3  H   ILE A   6      21.890  33.300  11.698  0.00  0.00    +0.150 HD
ATOM      4  O   GLY A   5      21.861  36.222  10.457  0.00  0.00    -0.273 OA
ENDROOT
BRANCH   2   5
ATOM      5  CA  ILE A   6      22.955  33.813   9.891  0.00  0.00    +0.149 C 
BRANCH   5   6
ATOM      6  C   ILE A   6      22.162  34.082   8.625  0.00  0.00    +0.241 C 
ATOM      7  O   ILE A   6      21.024  33.577   8.469  0.00  0.00    -0.273 OA
ATOM      8  N   GLY A   7      22.748  34.888   7.749  0.00  0.00    -0.295 N 
ATOM      9  H   GLY A   7      23.698  35.261   7.950  0.00  0.00    +0.150 HD
BRANCH   8  10
ATOM     10  CA  GLY A   7      22.093  35.248   6.539  0.00  0.00    +0.176 C 
BRANCH  10  11
ATOM     11  C   GLY A   7      21.325  36.536   6.545  0.00  0.00    +0.243 C 
ATOM     12  N   GLY A   8      21.106  37.120   7.706  0.00  0.00    -0.295 N 
ATOM     13  H   GLY A   8      21.454  36.655   8.569  0.00  0.00    +0.150 HD
ATOM     14  O   GLY A   7      20.943  37.028   5.483  0.00  0.00    -0.273 OA
BRANCH  12  15
ATOM     15  CA  GLY A   8      20.408  38.372   7.835  0.00  0.00    +0.176 C 
BRANCH  15  16
ATOM     16  C   GLY A   8      19.083  38.274   8.582  0.00  0.00    +0.243 C 
ATOM     17  O   GLY A   8      18.901  37.402   9.430  0.00  0.00    -0.273 OA
ATOM     18  N   PHE A   9      18.199  39.200   8.297  0.00  0.00    -0.297 N 
ATOM     19  H   PHE A   9      18.384  39.831   7.491  0.00  0.00    +0.150 HD
BRANCH  18  20
ATOM     20  CA  PHE A   9      16.962  39.387   9.061  0.00  0.00    +0.153 C 
BRANCH  20  21
ATOM     21  C   PHE A   9      15.753  38.869   8.312  0.00  0.00    +0.241 C 
ATOM     22  N   ILE A  10      14.737  38.482   9.108  0.00  0.00    -0.298 N 
ATOM     23  H   ILE A  10      14.919  38.360  10.125  0.00  0.00    +0.150 HD
ATOM     24  O   PHE A   9      15.698  38.887   7.107  0.00  0.00    -0.273 OA
BRANCH  22  25
ATOM     25  CA  ILE A  10      13.398  38.228   8.606  0.00  0.00    +0.137 C 
BRANCH  25  26
ATOM     26  C   ILE A  10      12.398  39.078   9.406  0.00  0.00    +0.227 C 
ATOM     27  O   ILE A  10      12.611  39.416  10.552  0.00  0.00    -0.286 OA
ENDBRANCH  25  26
BRANCH  25  28
ATOM     28  CB  ILE A  10      12.994  36.747   8.632  0.00  0.00    +0.026 C 
ATOM     29  CG2 ILE A  10      13.894  35.923   7.733  0.00  0.00    +0.002 C 
BRANCH  28  30
ATOM     30  CG1 ILE A  10      12.962  36.171  10.051  0.00  0.00    +0.002 C 
ATOM     31  CD1 ILE A  10      12.245  34.835  10.178  0.00  0.00    +0.000 C 
ENDBRANCH  28  30
ENDBRANCH  25  28
ENDBRANCH  22  25
ENDBRANCH  20  21
BRANCH  20  32
ATOM     32  CB  PHE A   9      16.778  40.878   9.387  0.00  0.00    +0.055 C 
BRANCH  32  33
ATOM     33  CG  PHE A   9      17.693  41.369  10.490  0.00  0.00    -0.020 A 
ATOM     34  CD2 PHE A   9      17.196  41.590  11.753  0.00  0.00    -0.004 A 
ATOM     35  CE2 PHE A   9      18.011  42.026  12.791  0.00  0.00    -0.000 A 
ATOM     36  CZ  PHE A   9      19.359  42.233  12.553  0.00  0.00    -0.000 A 
ATOM     37  CE1 PHE A   9      19.850  42.042  11.287  0.00  0.00    -0.000 A 
ATOM     38  CD1 PHE A   9      19.023  41.600  10.264  0.00  0.00    -0.004 A 
ENDBRANCH  32  33
ENDBRANCH  20  32
ENDBRANCH  18  20
ENDBRANCH  15  16
ENDBRANCH  12  15
ENDBRANCH  10  11
ENDBRANCH   8  10
ENDBRANCH   5   6
BRANCH   5  39
ATOM     39  CB  ILE A   6      23.541  32.404   9.977  0.00  0.00    +0.027 C 
ATOM     40  CG2 ILE A   6      24.095  31.972   8.623  0.00  0.00    +0.002 C 
BRANCH  39  41
ATOM     41  CG1 ILE A   6      24.600  32.334  11.092  0.00  0.00    +0.002 C 
ATOM     42  CD1 ILE A   6      25.030  30.941  11.491  0.00  0.00    +0.000 C 
ENDBRANCH  39  41
ENDBRANCH   5  39
ENDBRANCH   2   5
BRANCH   1  43
ATOM     43  CA  GLY A   5      20.648  35.454  12.378  0.00  0.00    +0.176 C 
BRANCH  43  46
ATOM     44  C   GLY A   4      19.226  37.289  13.094  0.00  0.00    +0.243 C 
ATOM     45  O   GLY A   4      19.409  37.010  14.283  0.00  0.00    -0.273 OA
ATOM     46  N   GLY A   5      19.757  36.581  12.142  0.00  0.00    -0.295 N 
ATOM     47  H   GLY A   5      19.533  36.833  11.158  0.00  0.00    +0.150 HD
BRANCH  44  48
ATOM     48  CA  GLY A   4      18.445  38.497  12.685  0.00  0.00    +0.176 C 
BRANCH  48  50
ATOM     49  C   ILE A   3      16.056  38.791  12.978  0.00  0.00    +0.241 C 
ATOM     50  N   GLY A   4      17.281  38.757  13.495  0.00  0.00    -0.295 N 
ATOM     51  H   GLY A   4      17.403  38.923  14.514  0.00  0.00    +0.150 HD
ATOM     52  O   ILE A   3      15.783  38.501  11.812  0.00  0.00    -0.273 OA
BRANCH  49  53
ATOM     53  CA  ILE A   3      14.975  39.258  13.916  0.00  0.00    +0.149 C 
BRANCH  53  56
ATOM     54  C   MET A   2      13.633  41.274  13.565  0.00  0.00    +0.241 C 
ATOM     55  O   MET A   2      14.070  41.811  14.586  0.00  0.00    -0.273 OA
ATOM     56  N   ILE A   3      13.997  40.046  13.172  0.00  0.00    -0.297 N 
ATOM     57  H   ILE A   3      13.571  39.643  12.313  0.00  0.00    +0.150 HD
BRANCH  54  58
ATOM     58  CA  MET A   2      12.643  41.994  12.676  0.00  0.00    +0.149 C 
BRANCH  58  60
ATOM     59  C   LYS A   1      10.329  42.313  13.412  0.00  0.00    +0.238 C 
ATOM     60  N   MET A   2      11.623  42.589  13.509  0.00  0.00    -0.297 N 
ATOM     61  H   MET A   2      11.922  43.277  14.230  0.00  0.00    +0.150 HD
ATOM     62  O   LYS A   1       9.875  41.649  12.471  0.00  0.00    -0.274 OA
BRANCH  59  63
ATOM     63  CA  LYS A   1       9.418  42.802  14.528  0.00  0.00    +0.145 C 
BRANCH  63  64
ATOM     64  N   LYS A   1       8.075  42.944  14.008  0.00  0.00    -0.238 NA
ATOM     65  H   LYS A   1       7.768  42.287  13.263  0.00  0.00    +0.142 HD
ENDBRANCH  63  64
BRANCH  63  66
ATOM     66  CB  LYS A   1       9.398  41.806  15.700  0.00  0.00    +0.026 C 
BRANCH  66  67
ATOM     67  CG  LYS A   1      10.677  41.738  16.561  0.00  0.00    -0.000 C 
BRANCH  67  68
ATOM     68  CD  LYS A   1      10.492  40.841  17.771  0.00  0.00    -0.024 C 
BRANCH  68  69
ATOM     69  CE  LYS A   1      11.761  40.560  18.494  0.00  0.00    -0.086 C 
BRANCH  69  70
ATOM     70  NZ  LYS A   1      12.194  41.653  19.358  0.00  0.00    +0.380 N 
ATOM     71  HZ1 LYS A   1      11.462  41.838  20.073  0.00  0.00    -0.089 HD
ATOM     72  HZ2 LYS A   1      13.083  41.389  19.830  0.00  0.00    -0.089 HD
ATOM     73  HZ3 LYS A   1      12.345  42.508  18.785  0.00  0.00    -0.089 HD
ENDBRANCH  69  70
ENDBRANCH  68  69
ENDBRANCH  67  68
ENDBRANCH  66  67
ENDBRANCH  63  66
ENDBRANCH  59  63
ENDBRANCH  58  60
BRANCH  58  74
ATOM     74  CB  MET A   2      13.485  43.105  11.998  0.00  0.00    +0.041 C 
BRANCH  74  75
ATOM     75  CG  MET A   2      12.723  43.782  10.894  0.00  0.00    +0.060 C 
BRANCH  75  76
ATOM     76  SD  MET A   2      12.888  42.842   9.374  0.00  0.00    -0.139 S 
ATOM     77  CE  MET A   2      14.412  43.558   8.727  0.00  0.00    +0.069 C 
ENDBRANCH  75  76
ENDBRANCH  74  75
ENDBRANCH  58  74
ENDBRANCH  54  58
ENDBRANCH  53  56
BRANCH  53  78
ATOM     78  CB  ILE A   3      14.332  38.096  14.684  0.00  0.00    +0.027 C 
ATOM     79  CG2 ILE A   3      13.462  38.619  15.816  0.00  0.00    +0.002 C 
BRANCH  78  80
ATOM     80  CG1 ILE A   3      13.638  37.106  13.756  0.00  0.00    +0.002 C 
ATOM     81  CD1 ILE A   3      13.130  35.826  14.455  0.00  0.00    +0.000 C 
ENDBRANCH  78  80
ENDBRANCH  53  78
ENDBRANCH  49  53
ENDBRANCH  48  50
ENDBRANCH  44  48
ENDBRANCH  43  46
ENDBRANCH   1  43
TORSDOF 36
REMARK  Name = ../refined-set-2016/2idw/2idw_pocket.pdb
REMARK  203 active torsions:
REMARK  status: ('A' for Active; 'I' for Inactive)
REMARK    1  A    between atoms: _1  and  _3
REMARK    2  A    between atoms: _3  and  _4
REMARK    3  A    between atoms: _3  and  _6
REMARK    4  A    between atoms: _6  and  _7
REMARK    5  A    between atoms: _7  and  _8
REMARK    6  A    between atoms: _8  and  _9
REMARK    7  A    between atoms: _18  and  _20
REMARK    8  A    between atoms: _20  and  _21
REMARK    9  A    between atoms: _20  and  _23
REMARK   10  A    between atoms: _23  and  _24
REMARK   11  A    between atoms: _27  and  _29
REMARK   12  A    between atoms: _29  and  _30
REMARK   13  A    between atoms: _29  and  _32
REMARK   14  A    between atoms: _32  and  _33
REMARK   15  A    between atoms: _36  and  _38
REMARK   16  A    between atoms: _38  and  _39
REMARK   17  A    between atoms: _38  and  _41
REMARK   18  A    between atoms: _41  and  _42
REMARK   19  A    between atoms: _45  and  _47
REMARK   20  A    between atoms: _47  and  _48
REMARK   21  A    between atoms: _47  and  _50
REMARK   22  A    between atoms: _50  and  _51
REMARK   23  A    between atoms: _54  and  _56
REMARK   24  A    between atoms: _56  and  _57
REMARK   25  A    between atoms: _59  and  _61
REMARK   26  A    between atoms: _61  and  _62
REMARK   27  A    between atoms: _65  and  _67
REMARK   28  A    between atoms: _67  and  _68
REMARK   29  A    between atoms: _67  and  _70
REMARK   30  A    between atoms: _70  and  _71
REMARK   31  A    between atoms: _74  and  _76
REMARK   32  A    between atoms: _76  and  _77
REMARK   33  A    between atoms: _76  and  _79
REMARK   34  A    between atoms: _79  and  _80
REMARK   35  A    between atoms: _83  and  _85
REMARK   36  A    between atoms: _85  and  _86
REMARK   37  A    between atoms: _85  and  _88
REMARK   38  A    between atoms: _88  and  _89
REMARK   39  A    between atoms: _92  and  _94
REMARK   40  A    between atoms: _94  and  _95
REMARK   41  A    between atoms: _94  and  _97
REMARK   42  A    between atoms: _100  and  _102
REMARK   43  A    between atoms: _102  and  _103
REMARK   44  A    between atoms: _102  and  _105
REMARK   45  A    between atoms: _105  and  _106
REMARK   46  A    between atoms: _106  and  _107
REMARK   47  A    between atoms: _107  and  _108
REMARK   48  A    between atoms: _108  and  _109
REMARK   49  A    between atoms: _113  and  _115
REMARK   50  A    between atoms: _115  and  _116
REMARK   51  A    between atoms: _115  and  _118
REMARK   52  A    between atoms: _118  and  _119
REMARK   53  A    between atoms: _119  and  _120
REMARK   54  A    between atoms: _122  and  _124
REMARK   55  A    between atoms: _124  and  _125
REMARK   56  A    between atoms: _124  and  _127
REMARK   57  A    between atoms: _127  and  _128
REMARK   58  A    between atoms: _131  and  _133
REMARK   59  A    between atoms: _133  and  _134
REMARK   60  A    between atoms: _136  and  _138
REMARK   61  A    between atoms: _138  and  _139
REMARK   62  A    between atoms: _141  and  _143
REMARK   63  A    between atoms: _143  and  _144
REMARK   64  A    between atoms: _143  and  _146
REMARK   65  A    between atoms: _146  and  _147
REMARK   66  A    between atoms: _150  and  _152
REMARK   67  A    between atoms: _152  and  _153
REMARK   68  A    between atoms: _155  and  _157
REMARK   69  A    between atoms: _157  and  _158
REMARK   70  A    between atoms: _160  and  _162
REMARK   71  A    between atoms: _162  and  _163
REMARK   72  A    between atoms: _162  and  _165
REMARK   73  A    between atoms: _165  and  _166
REMARK   74  A    between atoms: _172  and  _174
REMARK   75  A    between atoms: _174  and  _175
REMARK   76  A    between atoms: _174  and  _177
REMARK   77  A    between atoms: _177  and  _178
REMARK   78  A    between atoms: _181  and  _183
REMARK   79  A    between atoms: _183  and  _184
REMARK   80  A    between atoms: _183  and  _186
REMARK   81  A    between atoms: _189  and  _191
REMARK   82  A    between atoms: _191  and  _192
REMARK   83  A    between atoms: _191  and  _194
REMARK   84  A    between atoms: _194  and  _195
REMARK   85  A    between atoms: _198  and  _200
REMARK   86  A    between atoms: _200  and  _201
REMARK   87  A    between atoms: _200  and  _203
REMARK   88  A    between atoms: _203  and  _204
REMARK   89  A    between atoms: _208  and  _209
REMARK   90  A    between atoms: _214  and  _216
REMARK   91  A    between atoms: _216  and  _217
REMARK   92  A    between atoms: _220  and  _222
REMARK   93  A    between atoms: _222  and  _223
REMARK   94  A    between atoms: _222  and  _225
REMARK   95  A    between atoms: _225  and  _226
REMARK   96  A    between atoms: _231  and  _233
REMARK   97  A    between atoms: _233  and  _234
REMARK   98  A    between atoms: _233  and  _236
REMARK   99  A    between atoms: _236  and  _237
REMARK  100  A    between atoms: _240  and  _242
REMARK  101  A    between atoms: _242  and  _243
REMARK  102  A    between atoms: _242  and  _245
REMARK  103  A    between atoms: _245  and  _246
REMARK  104  A    between atoms: _249  and  _251
REMARK  105  A    between atoms: _251  and  _252
REMARK  106  A    between atoms: _254  and  _256
REMARK  107  A    between atoms: _256  and  _257
REMARK  108  A    between atoms: _256  and  _259
REMARK  109  A    between atoms: _259  and  _260
REMARK  110  A    between atoms: _260  and  _261
REMARK  111  A    between atoms: _261  and  _262
REMARK  112  A    between atoms: _271  and  _273
REMARK  113  A    between atoms: _273  and  _274
REMARK  114  A    between atoms: _273  and  _276
REMARK  115  A    between atoms: _276  and  _277
REMARK  116  A    between atoms: _277  and  _278
REMARK  117  A    between atoms: _278  and  _279
REMARK  118  A    between atoms: _288  and  _290
REMARK  119  A    between atoms: _290  and  _291
REMARK  120  A    between atoms: _290  and  _293
REMARK  121  A    between atoms: _293  and  _294
REMARK  122  A    between atoms: _297  and  _299
REMARK  123  A    between atoms: _299  and  _300
REMARK  124  A    between atoms: _299  and  _302
REMARK  125  A    between atoms: _302  and  _303
REMARK  126  A    between atoms: _306  and  _308
REMARK  127  A    between atoms: _308  and  _309
REMARK  128  A    between atoms: _308  and  _311
REMARK  129  A    between atoms: _311  and  _312
REMARK  130  A    between atoms: _315  and  _317
REMARK  131  A    between atoms: _317  and  _318
REMARK  132  A    between atoms: _317  and  _320
REMARK  133  A    between atoms: _320  and  _321
REMARK  134  A    between atoms: _324  and  _326
REMARK  135  A    between atoms: _326  and  _327
REMARK  136  A    between atoms: _329  and  _331
REMARK  137  A    between atoms: _331  and  _332
REMARK  138  A    between atoms: _335  and  _337
REMARK  139  A    between atoms: _337  and  _338
REMARK  140  A    between atoms: _337  and  _340
REMARK  141  A    between atoms: _340  and  _341
REMARK  142  A    between atoms: _344  and  _346
REMARK  143  A    between atoms: _346  and  _347
REMARK  144  A    between atoms: _346  and  _349
REMARK  145  A    between atoms: _349  and  _350
REMARK  146  A    between atoms: _353  and  _355
REMARK  147  A    between atoms: _355  and  _356
REMARK  148  A    between atoms: _355  and  _358
REMARK  149  A    between atoms: _358  and  _359
REMARK  150  A    between atoms: _362  and  _364
REMARK  151  A    between atoms: _364  and  _365
REMARK  152  A    between atoms: _364  and  _367
REMARK  153  A    between atoms: _370  and  _372
REMARK  154  A    between atoms: _372  and  _373
REMARK  155  A    between atoms: _372  and  _375
REMARK  156  A    between atoms: _375  and  _376
REMARK  157  A    between atoms: _379  and  _381
REMARK  158  A    between atoms: _381  and  _382
REMARK  159  A    between atoms: _384  and  _386
REMARK  160  A    between atoms: _386  and  _387
REMARK  161  A    between atoms: _389  and  _391
REMARK  162  A    between atoms: _391  and  _392
REMARK  163  A    between atoms: _391  and  _394
REMARK  164  A    between atoms: _394  and  _395
REMARK  165  A    between atoms: _398  and  _400
REMARK  166  A    between atoms: _400  and  _401
REMARK  167  A    between atoms: _403  and  _405
REMARK  168  A    between atoms: _405  and  _406
REMARK  169  A    between atoms: _408  and  _410
REMARK  170  A    between atoms: _410  and  _411
REMARK  171  A    between atoms: _410  and  _413
REMARK  172  A    between atoms: _413  and  _414
REMARK  173  A    between atoms: _417  and  _419
REMARK  174  A    between atoms: _419  and  _420
REMARK  175  A    between atoms: _419  and  _422
REMARK  176  A    between atoms: _422  and  _423
REMARK  177  A    between atoms: _427  and  _428
REMARK  178  A    between atoms: _433  and  _435
REMARK  179  A    between atoms: _435  and  _436
REMARK  180  A    between atoms: _439  and  _441
REMARK  181  A    between atoms: _441  and  _442
REMARK  182  A    between atoms: _441  and  _444
REMARK  183  A    between atoms: _444  and  _445
REMARK  184  A    between atoms: _450  and  _452
REMARK  185  A    between atoms: _452  and  _453
REMARK  186  A    between atoms: _452  and  _455
REMARK  187  A    between atoms: _455  and  _456
REMARK  188  A    between atoms: _459  and  _461
REMARK  189  A    between atoms: _461  and  _462
REMARK  190  A    between atoms: _461  and  _464
REMARK  191  A    between atoms: _464  and  _465
REMARK  192  A    between atoms: _468  and  _470
REMARK  193  A    between atoms: _470  and  _471
REMARK  194  A    between atoms: _473  and  _475
REMARK  195  A    between atoms: _475  and  _476
REMARK  196  A    between atoms: _475  and  _478
REMARK  197  A    between atoms: _478  and  _479
REMARK  198  A    between atoms: _479  and  _480
REMARK  199  A    between atoms: _480  and  _481
REMARK  200  A    between atoms: _490  and  _492
REMARK  201  A    between atoms: _492  and  _493
REMARK  202  A    between atoms: _492  and  _495
REMARK  203  A    between atoms: _495  and  _496
REMARK                            x       y       z     vdW  Elec       q    Type
REMARK                         _______ _______ _______ _____ _____    ______ ____
ROOT
ATOM      1  CA  VAL A   1       7.924  38.442  11.859  0.00  0.00    +0.133 C 
ENDROOT
BRANCH   1   2
ATOM      2  CB  VAL A   1       8.678  37.557  12.883  0.00  0.00    +0.023 C 
ATOM      3  CG2 VAL A   1       9.376  38.422  13.904  0.00  0.00    +0.002 C 
ATOM      4  CG1 VAL A   1       9.657  36.646  12.173  0.00  0.00    +0.002 C 
ENDBRANCH   1   2
BRANCH   1   5
ATOM      5  N   VAL A   1       8.822  39.328  11.146  0.00  0.00    -0.239 NA
ATOM      6  H   VAL A   1       9.153  40.191  11.623  0.00  0.00    +0.142 HD
ENDBRANCH   1   5
BRANCH   1   7
ATOM      7  C   VAL A   1       6.822  39.247  12.539  0.00  0.00    +0.224 C 
ATOM      8  O   VAL A   1       6.925  40.459  12.739  0.00  0.00    -0.287 OA
ENDBRANCH   1   7
TORSDOF 3
REMARK  Name = ../refined-set-2016/2idw/2idw_pocket.pdb
REMARK  203 active torsions:
REMARK  status: ('A' for Active; 'I' for Inactive)
REMARK    1  A    between atoms: _1  and  _3
REMARK    2  A    between atoms: _3  and  _4
REMARK    3  A    between atoms: _3  and  _6
REMARK    4  A    between atoms: _6  and  _7
REMARK    5  A    between atoms: _7  and  _8
REMARK    6  A    between atoms: _8  and  _9
REMARK    7  A    between atoms: _18  and  _20
REMARK    8  A    between atoms: _20  and  _21
REMARK    9  A    between atoms: _20  and  _23
REMARK   10  A    between atoms: _23  and  _24
REMARK   11  A    between atoms: _27  and  _29
REMARK   12  A    between atoms: _29  and  _30
REMARK   13  A    between atoms: _29  and  _32
REMARK   14  A    between atoms: _32  and  _33
REMARK   15  A    between atoms: _36  and  _38
REMARK   16  A    between atoms: _38  and  _39
REMARK   17  A    between atoms: _38  and  _41
REMARK   18  A    between atoms: _41  and  _42
REMARK   19  A    between atoms: _45  and  _47
REMARK   20  A    between atoms: _47  and  _48
REMARK   21  A    between atoms: _47  and  _50
REMARK   22  A    between atoms: _50  and  _51
REMARK   23  A    between atoms: _54  and  _56
REMARK   24  A    between atoms: _56  and  _57
REMARK   25  A    between atoms: _59  and  _61
REMARK   26  A    between atoms: _61  and  _62
REMARK   27  A    between atoms: _65  and  _67
REMARK   28  A    between atoms: _67  and  _68
REMARK   29  A    between atoms: _67  and  _70
REMARK   30  A    between atoms: _70  and  _71
REMARK   31  A    between atoms: _74  and  _76
REMARK   32  A    between atoms: _76  and  _77
REMARK   33  A    between atoms: _76  and  _79
REMARK   34  A    between atoms: _79  and  _80
REMARK   35  A    between atoms: _83  and  _85
REMARK   36  A    between atoms: _85  and  _86
REMARK   37  A    between atoms: _85  and  _88
REMARK   38  A    between atoms: _88  and  _89
REMARK   39  A    between atoms: _92  and  _94
REMARK   40  A    between atoms: _94  and  _95
REMARK   41  A    between atoms: _94  and  _97
REMARK   42  A    between atoms: _100  and  _102
REMARK   43  A    between atoms: _102  and  _103
REMARK   44  A    between atoms: _102  and  _105
REMARK   45  A    between atoms: _105  and  _106
REMARK   46  A    between atoms: _106  and  _107
REMARK   47  A    between atoms: _107  and  _108
REMARK   48  A    between atoms: _108  and  _109
REMARK   49  A    between atoms: _113  and  _115
REMARK   50  A    between atoms: _115  and  _116
REMARK   51  A    between atoms: _115  and  _118
REMARK   52  A    between atoms: _118  and  _119
REMARK   53  A    between atoms: _119  and  _120
REMARK   54  A    between atoms: _122  and  _124
REMARK   55  A    between atoms: _124  and  _125
REMARK   56  A    between atoms: _124  and  _127
REMARK   57  A    between atoms: _127  and  _128
REMARK   58  A    between atoms: _131  and  _133
REMARK   59  A    between atoms: _133  and  _134
REMARK   60  A    between atoms: _136  and  _138
REMARK   61  A    between atoms: _138  and  _139
REMARK   62  A    between atoms: _141  and  _143
REMARK   63  A    between atoms: _143  and  _144
REMARK   64  A    between atoms: _143  and  _146
REMARK   65  A    between atoms: _146  and  _147
REMARK   66  A    between atoms: _150  and  _152
REMARK   67  A    between atoms: _152  and  _153
REMARK   68  A    between atoms: _155  and  _157
REMARK   69  A    between atoms: _157  and  _158
REMARK   70  A    between atoms: _160  and  _162
REMARK   71  A    between atoms: _162  and  _163
REMARK   72  A    between atoms: _162  and  _165
REMARK   73  A    between atoms: _165  and  _166
REMARK   74  A    between atoms: _172  and  _174
REMARK   75  A    between atoms: _174  and  _175
REMARK   76  A    between atoms: _174  and  _177
REMARK   77  A    between atoms: _177  and  _178
REMARK   78  A    between atoms: _181  and  _183
REMARK   79  A    between atoms: _183  and  _184
REMARK   80  A    between atoms: _183  and  _186
REMARK   81  A    between atoms: _189  and  _191
REMARK   82  A    between atoms: _191  and  _192
REMARK   83  A    between atoms: _191  and  _194
REMARK   84  A    between atoms: _194  and  _195
REMARK   85  A    between atoms: _198  and  _200
REMARK   86  A    between atoms: _200  and  _201
REMARK   87  A    between atoms: _200  and  _203
REMARK   88  A    between atoms: _203  and  _204
REMARK   89  A    between atoms: _208  and  _209
REMARK   90  A    between atoms: _214  and  _216
REMARK   91  A    between atoms: _216  and  _217
REMARK   92  A    between atoms: _220  and  _222
REMARK   93  A    between atoms: _222  and  _223
REMARK   94  A    between atoms: _222  and  _225
REMARK   95  A    between atoms: _225  and  _226
REMARK   96  A    between atoms: _231  and  _233
REMARK   97  A    between atoms: _233  and  _234
REMARK   98  A    between atoms: _233  and  _236
REMARK   99  A    between atoms: _236  and  _237
REMARK  100  A    between atoms: _240  and  _242
REMARK  101  A    between atoms: _242  and  _243
REMARK  102  A    between atoms: _242  and  _245
REMARK  103  A    between atoms: _245  and  _246
REMARK  104  A    between atoms: _249  and  _251
REMARK  105  A    between atoms: _251  and  _252
REMARK  106  A    between atoms: _254  and  _256
REMARK  107  A    between atoms: _256  and  _257
REMARK  108  A    between atoms: _256  and  _259
REMARK  109  A    between atoms: _259  and  _260
REMARK  110  A    between atoms: _260  and  _261
REMARK  111  A    between atoms: _261  and  _262
REMARK  112  A    between atoms: _271  and  _273
REMARK  113  A    between atoms: _273  and  _274
REMARK  114  A    between atoms: _273  and  _276
REMARK  115  A    between atoms: _276  and  _277
REMARK  116  A    between atoms: _277  and  _278
REMARK  117  A    between atoms: _278  and  _279
REMARK  118  A    between atoms: _288  and  _290
REMARK  119  A    between atoms: _290  and  _291
REMARK  120  A    between atoms: _290  and  _293
REMARK  121  A    between atoms: _293  and  _294
REMARK  122  A    between atoms: _297  and  _299
REMARK  123  A    between atoms: _299  and  _300
REMARK  124  A    between atoms: _299  and  _302
REMARK  125  A    between atoms: _302  and  _303
REMARK  126  A    between atoms: _306  and  _308
REMARK  127  A    between atoms: _308  and  _309
REMARK  128  A    between atoms: _308  and  _311
REMARK  129  A    between atoms: _311  and  _312
REMARK  130  A    between atoms: _315  and  _317
REMARK  131  A    between atoms: _317  and  _318
REMARK  132  A    between atoms: _317  and  _320
REMARK  133  A    between atoms: _320  and  _321
REMARK  134  A    between atoms: _324  and  _326
REMARK  135  A    between atoms: _326  and  _327
REMARK  136  A    between atoms: _329  and  _331
REMARK  137  A    between atoms: _331  and  _332
REMARK  138  A    between atoms: _335  and  _337
REMARK  139  A    between atoms: _337  and  _338
REMARK  140  A    between atoms: _337  and  _340
REMARK  141  A    between atoms: _340  and  _341
REMARK  142  A    between atoms: _344  and  _346
REMARK  143  A    between atoms: _346  and  _347
REMARK  144  A    between atoms: _346  and  _349
REMARK  145  A    between atoms: _349  and  _350
REMARK  146  A    between atoms: _353  and  _355
REMARK  147  A    between atoms: _355  and  _356
REMARK  148  A    between atoms: _355  and  _358
REMARK  149  A    between atoms: _358  and  _359
REMARK  150  A    between atoms: _362  and  _364
REMARK  151  A    between atoms: _364  and  _365
REMARK  152  A    between atoms: _364  and  _367
REMARK  153  A    between atoms: _370  and  _372
REMARK  154  A    between atoms: _372  and  _373
REMARK  155  A    between atoms: _372  and  _375
REMARK  156  A    between atoms: _375  and  _376
REMARK  157  A    between atoms: _379  and  _381
REMARK  158  A    between atoms: _381  and  _382
REMARK  159  A    between atoms: _384  and  _386
REMARK  160  A    between atoms: _386  and  _387
REMARK  161  A    between atoms: _389  and  _391
REMARK  162  A    between atoms: _391  and  _392
REMARK  163  A    between atoms: _391  and  _394
REMARK  164  A    between atoms: _394  and  _395
REMARK  165  A    between atoms: _398  and  _400
REMARK  166  A    between atoms: _400  and  _401
REMARK  167  A    between atoms: _403  and  _405
REMARK  168  A    between atoms: _405  and  _406
REMARK  169  A    between atoms: _408  and  _410
REMARK  170  A    between atoms: _410  and  _411
REMARK  171  A    between atoms: _410  and  _413
REMARK  172  A    between atoms: _413  and  _414
REMARK  173  A    between atoms: _417  and  _419
REMARK  174  A    between atoms: _419  and  _420
REMARK  175  A    between atoms: _419  and  _422
REMARK  176  A    between atoms: _422  and  _423
REMARK  177  A    between atoms: _427  and  _428
REMARK  178  A    between atoms: _433  and  _435
REMARK  179  A    between atoms: _435  and  _436
REMARK  180  A    between atoms: _439  and  _441
REMARK  181  A    between atoms: _441  and  _442
REMARK  182  A    between atoms: _441  and  _444
REMARK  183  A    between atoms: _444  and  _445
REMARK  184  A    between atoms: _450  and  _452
REMARK  185  A    between atoms: _452  and  _453
REMARK  186  A    between atoms: _452  and  _455
REMARK  187  A    between atoms: _455  and  _456
REMARK  188  A    between atoms: _459  and  _461
REMARK  189  A    between atoms: _461  and  _462
REMARK  190  A    between atoms: _461  and  _464
REMARK  191  A    between atoms: _464  and  _465
REMARK  192  A    between atoms: _468  and  _470
REMARK  193  A    between atoms: _470  and  _471
REMARK  194  A    between atoms: _473  and  _475
REMARK  195  A    between atoms: _475  and  _476
REMARK  196  A    between atoms: _475  and  _478
REMARK  197  A    between atoms: _478  and  _479
REMARK  198  A    between atoms: _479  and  _480
REMARK  199  A    between atoms: _480  and  _481
REMARK  200  A    between atoms: _490  and  _492
REMARK  201  A    between atoms: _492  and  _493
REMARK  202  A    between atoms: _492  and  _495
REMARK  203  A    between atoms: _495  and  _496
REMARK                            x       y       z     vdW  Elec       q    Type
REMARK                         _______ _______ _______ _____ _____    ______ ____
ROOT
ATOM      1  CA  LEU A   1       7.116  35.337  16.709  0.00  0.00    +0.133 C 
ENDROOT
BRANCH   1   2
ATOM      2  N   LEU A   1       6.872  34.607  17.950  0.00  0.00    -0.239 NA
ATOM      3  H   LEU A   1       7.583  33.909  18.248  0.00  0.00    +0.142 HD
ENDBRANCH   1   2
BRANCH   1   4
ATOM      4  C   LEU A   1       6.725  34.421  15.576  0.00  0.00    +0.224 C 
ATOM      5  O   LEU A   1       7.111  33.239  15.574  0.00  0.00    -0.287 OA
ENDBRANCH   1   4
BRANCH   1   6
ATOM      6  CB  LEU A   1       8.583  35.714  16.593  0.00  0.00    +0.025 C 
BRANCH   6   7
ATOM      7  CG  LEU A   1       9.177  36.454  17.802  0.00  0.00    +0.002 C 
ATOM      8  CD2 LEU A   1       8.359  37.659  18.214  0.00  0.00    +0.000 C 
ATOM      9  CD1 LEU A   1      10.622  36.829  17.608  0.00  0.00    +0.000 C 
ENDBRANCH   6   7
ENDBRANCH   1   6
TORSDOF 4
REMARK  Name = ../refined-set-2016/2idw/2idw_pocket.pdb
REMARK  203 active torsions:
REMARK  status: ('A' for Active; 'I' for Inactive)
REMARK    1  A    between atoms: _1  and  _3
REMARK    2  A    between atoms: _3  and  _4
REMARK    3  A    between atoms: _3  and  _6
REMARK    4  A    between atoms: _6  and  _7
REMARK    5  A    between atoms: _7  and  _8
REMARK    6  A    between atoms: _8  and  _9
REMARK    7  A    between atoms: _18  and  _20
REMARK    8  A    between atoms: _20  and  _21
REMARK    9  A    between atoms: _20  and  _23
REMARK   10  A    between atoms: _23  and  _24
REMARK   11  A    between atoms: _27  and  _29
REMARK   12  A    between atoms: _29  and  _30
REMARK   13  A    between atoms: _29  and  _32
REMARK   14  A    between atoms: _32  and  _33
REMARK   15  A    between atoms: _36  and  _38
REMARK   16  A    between atoms: _38  and  _39
REMARK   17  A    between atoms: _38  and  _41
REMARK   18  A    between atoms: _41  and  _42
REMARK   19  A    between atoms: _45  and  _47
REMARK   20  A    between atoms: _47  and  _48
REMARK   21  A    between atoms: _47  and  _50
REMARK   22  A    between atoms: _50  and  _51
REMARK   23  A    between atoms: _54  and  _56
REMARK   24  A    between atoms: _56  and  _57
REMARK   25  A    between atoms: _59  and  _61
REMARK   26  A    between atoms: _61  and  _62
REMARK   27  A    between atoms: _65  and  _67
REMARK   28  A    between atoms: _67  and  _68
REMARK   29  A    between atoms: _67  and  _70
REMARK   30  A    between atoms: _70  and  _71
REMARK   31  A    between atoms: _74  and  _76
REMARK   32  A    between atoms: _76  and  _77
REMARK   33  A    between atoms: _76  and  _79
REMARK   34  A    between atoms: _79  and  _80
REMARK   35  A    between atoms: _83  and  _85
REMARK   36  A    between atoms: _85  and  _86
REMARK   37  A    between atoms: _85  and  _88
REMARK   38  A    between atoms: _88  and  _89
REMARK   39  A    between atoms: _92  and  _94
REMARK   40  A    between atoms: _94  and  _95
REMARK   41  A    between atoms: _94  and  _97
REMARK   42  A    between atoms: _100  and  _102
REMARK   43  A    between atoms: _102  and  _103
REMARK   44  A    between atoms: _102  and  _105
REMARK   45  A    between atoms: _105  and  _106
REMARK   46  A    between atoms: _106  and  _107
REMARK   47  A    between atoms: _107  and  _108
REMARK   48  A    between atoms: _108  and  _109
REMARK   49  A    between atoms: _113  and  _115
REMARK   50  A    between atoms: _115  and  _116
REMARK   51  A    between atoms: _115  and  _118
REMARK   52  A    between atoms: _118  and  _119
REMARK   53  A    between atoms: _119  and  _120
REMARK   54  A    between atoms: _122  and  _124
REMARK   55  A    between atoms: _124  and  _125
REMARK   56  A    between atoms: _124  and  _127
REMARK   57  A    between atoms: _127  and  _128
REMARK   58  A    between atoms: _131  and  _133
REMARK   59  A    between atoms: _133  and  _134
REMARK   60  A    between atoms: _136  and  _138
REMARK   61  A    between atoms: _138  and  _139
REMARK   62  A    between atoms: _141  and  _143
REMARK   63  A    between atoms: _143  and  _144
REMARK   64  A    between atoms: _143  and  _146
REMARK   65  A    between atoms: _146  and  _147
REMARK   66  A    between atoms: _150  and  _152
REMARK   67  A    between atoms: _152  and  _153
REMARK   68  A    between atoms: _155  and  _157
REMARK   69  A    between atoms: _157  and  _158
REMARK   70  A    between atoms: _160  and  _162
REMARK   71  A    between atoms: _162  and  _163
REMARK   72  A    between atoms: _162  and  _165
REMARK   73  A    between atoms: _165  and  _166
REMARK   74  A    between atoms: _172  and  _174
REMARK   75  A    between atoms: _174  and  _175
REMARK   76  A    between atoms: _174  and  _177
REMARK   77  A    between atoms: _177  and  _178
REMARK   78  A    between atoms: _181  and  _183
REMARK   79  A    between atoms: _183  and  _184
REMARK   80  A    between atoms: _183  and  _186
REMARK   81  A    between atoms: _189  and  _191
REMARK   82  A    between atoms: _191  and  _192
REMARK   83  A    between atoms: _191  and  _194
REMARK   84  A    between atoms: _194  and  _195
REMARK   85  A    between atoms: _198  and  _200
REMARK   86  A    between atoms: _200  and  _201
REMARK   87  A    between atoms: _200  and  _203
REMARK   88  A    between atoms: _203  and  _204
REMARK   89  A    between atoms: _208  and  _209
REMARK   90  A    between atoms: _214  and  _216
REMARK   91  A    between atoms: _216  and  _217
REMARK   92  A    between atoms: _220  and  _222
REMARK   93  A    between atoms: _222  and  _223
REMARK   94  A    between atoms: _222  and  _225
REMARK   95  A    between atoms: _225  and  _226
REMARK   96  A    between atoms: _231  and  _233
REMARK   97  A    between atoms: _233  and  _234
REMARK   98  A    between atoms: _233  and  _236
REMARK   99  A    between atoms: _236  and  _237
REMARK  100  A    between atoms: _240  and  _242
REMARK  101  A    between atoms: _242  and  _243
REMARK  102  A    between atoms: _242  and  _245
REMARK  103  A    between atoms: _245  and  _246
REMARK  104  A    between atoms: _249  and  _251
REMARK  105  A    between atoms: _251  and  _252
REMARK  106  A    between atoms: _254  and  _256
REMARK  107  A    between atoms: _256  and  _257
REMARK  108  A    between atoms: _256  and  _259
REMARK  109  A    between atoms: _259  and  _260
REMARK  110  A    between atoms: _260  and  _261
REMARK  111  A    between atoms: _261  and  _262
REMARK  112  A    between atoms: _271  and  _273
REMARK  113  A    between atoms: _273  and  _274
REMARK  114  A    between atoms: _273  and  _276
REMARK  115  A    between atoms: _276  and  _277
REMARK  116  A    between atoms: _277  and  _278
REMARK  117  A    between atoms: _278  and  _279
REMARK  118  A    between atoms: _288  and  _290
REMARK  119  A    between atoms: _290  and  _291
REMARK  120  A    between atoms: _290  and  _293
REMARK  121  A    between atoms: _293  and  _294
REMARK  122  A    between atoms: _297  and  _299
REMARK  123  A    between atoms: _299  and  _300
REMARK  124  A    between atoms: _299  and  _302
REMARK  125  A    between atoms: _302  and  _303
REMARK  126  A    between atoms: _306  and  _308
REMARK  127  A    between atoms: _308  and  _309
REMARK  128  A    between atoms: _308  and  _311
REMARK  129  A    between atoms: _311  and  _312
REMARK  130  A    between atoms: _315  and  _317
REMARK  131  A    between atoms: _317  and  _318
REMARK  132  A    between atoms: _317  and  _320
REMARK  133  A    between atoms: _320  and  _321
REMARK  134  A    between atoms: _324  and  _326
REMARK  135  A    between atoms: _326  and  _327
REMARK  136  A    between atoms: _329  and  _331
REMARK  137  A    between atoms: _331  and  _332
REMARK  138  A    between atoms: _335  and  _337
REMARK  139  A    between atoms: _337  and  _338
REMARK  140  A    between atoms: _337  and  _340
REMARK  141  A    between atoms: _340  and  _341
REMARK  142  A    between atoms: _344  and  _346
REMARK  143  A    between atoms: _346  and  _347
REMARK  144  A    between atoms: _346  and  _349
REMARK  145  A    between atoms: _349  and  _350
REMARK  146  A    between atoms: _353  and  _355
REMARK  147  A    between atoms: _355  and  _356
REMARK  148  A    between atoms: _355  and  _358
REMARK  149  A    between atoms: _358  and  _359
REMARK  150  A    between atoms: _362  and  _364
REMARK  151  A    between atoms: _364  and  _365
REMARK  152  A    between atoms: _364  and  _367
REMARK  153  A    between atoms: _370  and  _372
REMARK  154  A    between atoms: _372  and  _373
REMARK  155  A    between atoms: _372  and  _375
REMARK  156  A    between atoms: _375  and  _376
REMARK  157  A    between atoms: _379  and  _381
REMARK  158  A    between atoms: _381  and  _382
REMARK  159  A    between atoms: _384  and  _386
REMARK  160  A    between atoms: _386  and  _387
REMARK  161  A    between atoms: _389  and  _391
REMARK  162  A    between atoms: _391  and  _392
REMARK  163  A    between atoms: _391  and  _394
REMARK  164  A    between atoms: _394  and  _395
REMARK  165  A    between atoms: _398  and  _400
REMARK  166  A    between atoms: _400  and  _401
REMARK  167  A    between atoms: _403  and  _405
REMARK  168  A    between atoms: _405  and  _406
REMARK  169  A    between atoms: _408  and  _410
REMARK  170  A    between atoms: _410  and  _411
REMARK  171  A    between atoms: _410  and  _413
REMARK  172  A    between atoms: _413  and  _414
REMARK  173  A    between atoms: _417  and  _419
REMARK  174  A    between atoms: _419  and  _420
REMARK  175  A    between atoms: _419  and  _422
REMARK  176  A    between atoms: _422  and  _423
REMARK  177  A    between atoms: _427  and  _428
REMARK  178  A    between atoms: _433  and  _435
REMARK  179  A    between atoms: _435  and  _436
REMARK  180  A    between atoms: _439  and  _441
REMARK  181  A    between atoms: _441  and  _442
REMARK  182  A    between atoms: _441  and  _444
REMARK  183  A    between atoms: _444  and  _445
REMARK  184  A    between atoms: _450  and  _452
REMARK  185  A    between atoms: _452  and  _453
REMARK  186  A    between atoms: _452  and  _455
REMARK  187  A    between atoms: _455  and  _456
REMARK  188  A    between atoms: _459  and  _461
REMARK  189  A    between atoms: _461  and  _462
REMARK  190  A    between atoms: _461  and  _464
REMARK  191  A    between atoms: _464  and  _465
REMARK  192  A    between atoms: _468  and  _470
REMARK  193  A    between atoms: _470  and  _471
REMARK  194  A    between atoms: _473  and  _475
REMARK  195  A    between atoms: _475  and  _476
REMARK  196  A    between atoms: _475  and  _478
REMARK  197  A    between atoms: _478  and  _479
REMARK  198  A    between atoms: _479  and  _480
REMARK  199  A    between atoms: _480  and  _481
REMARK  200  A    between atoms: _490  and  _492
REMARK  201  A    between atoms: _492  and  _493
REMARK  202  A    between atoms: _492  and  _495
REMARK  203  A    between atoms: _495  and  _496
REMARK                            x       y       z     vdW  Elec       q    Type
REMARK                         _______ _______ _______ _____ _____    ______ ____
ROOT
ATOM      1  CA  ILE A   5      12.367  27.331  17.163  0.00  0.00    +0.149 C 
ENDROOT
BRANCH   1   3
ATOM      2  C   ASN A   4      11.180  26.037  15.442  0.00  0.00    +0.241 C 
ATOM      3  N   ILE A   5      11.313  27.113  16.181  0.00  0.00    -0.297 N 
ATOM      4  H   ILE A   5      10.611  27.870  16.056  0.00  0.00    +0.150 HD
ATOM      5  O   ASN A   4      11.823  24.999  15.598  0.00  0.00    -0.273 OA
BRANCH   2   6
ATOM      6  CA  ASN A   4      10.133  26.109  14.306  0.00  0.00    +0.158 C 
BRANCH   6   8
ATOM      7  C   ALA A   3      11.581  26.620  12.408  0.00  0.00    +0.241 C 
ATOM      8  N   ASN A   4      10.822  25.773  13.065  0.00  0.00    -0.297 N 
ATOM      9  H   ASN A   4      10.706  24.814  12.681  0.00  0.00    +0.150 HD
ATOM     10  O   ALA A   3      11.610  27.811  12.714  0.00  0.00    -0.273 OA
BRANCH   7  11
ATOM     11  CA  ALA A   3      12.456  26.055  11.317  0.00  0.00    +0.149 C 
ATOM     12  CB  ALA A   3      13.857  25.745  11.923  0.00  0.00    +0.031 C 
BRANCH  11  14
ATOM     13  C   PRO A   2      12.697  26.636   8.954  0.00  0.00    +0.241 C 
ATOM     14  N   ALA A   3      12.547  26.992  10.229  0.00  0.00    -0.297 N 
ATOM     15  H   ALA A   3      12.492  28.007  10.451  0.00  0.00    +0.150 HD
ATOM     16  O   PRO A   2      12.749  25.459   8.590  0.00  0.00    -0.273 OA
BRANCH  13  23
ATOM     17  C   THR A   1      11.503  29.586   8.718  0.00  0.00    +0.244 C 
ATOM     18  O   THR A   1      10.461  28.959   8.469  0.00  0.00    -0.273 OA
ATOM     19  N   PRO A   2      12.700  29.078   8.460  0.00  0.00    -0.272 N 
ATOM     20  CD  PRO A   2      14.017  29.752   8.537  0.00  0.00    +0.094 C 
ATOM     21  CG  PRO A   2      15.014  28.663   8.184  0.00  0.00    +0.024 C 
ATOM     22  CB  PRO A   2      14.244  27.696   7.325  0.00  0.00    +0.031 C 
ATOM     23  CA  PRO A   2      12.837  27.717   7.911  0.00  0.00    +0.152 C 
BRANCH  17  24
ATOM     24  CA  THR A   1      11.422  30.956   9.376  0.00  0.00    +0.172 C 
BRANCH  24  25
ATOM     25  N   THR A   1      10.273  31.681   8.868  0.00  0.00    -0.236 NA
ATOM     26  H   THR A   1       9.408  31.724   9.444  0.00  0.00    +0.142 HD
ENDBRANCH  24  25
BRANCH  24  27
ATOM     27  CB  THR A   1      11.353  30.836  10.897  0.00  0.00    +0.135 C 
ATOM     28  CG2 THR A   1      10.051  30.235  11.424  0.00  0.00    +0.034 C 
BRANCH  27  29
ATOM     29  OG1 THR A   1      12.457  30.028  11.303  0.00  0.00    -0.383 OA
ATOM     30  HG1 THR A   1      12.446  29.927  12.288  0.00  0.00    +0.210 HD
ENDBRANCH  27  29
ENDBRANCH  24  27
ENDBRANCH  17  24
ENDBRANCH  13  23
ENDBRANCH  11  14
ENDBRANCH   7  11
ENDBRANCH   6   8
BRANCH   6  31
ATOM     31  CB  ASN A   4       8.989  25.174  14.591  0.00  0.00    +0.114 C 
BRANCH  31  32
ATOM     32  CG  ASN A   4       7.873  25.253  13.588  0.00  0.00    +0.222 C 
ATOM     33  OD1 ASN A   4       7.444  26.328  13.184  0.00  0.00    -0.275 OA
ATOM     34  ND2 ASN A   4       7.387  24.086  13.141  0.00  0.00    -0.329 N 
ATOM     35 HD21 ASN A   4       7.771  23.190  13.503  0.00  0.00    +0.145 HD
ATOM     36 HD22 ASN A   4       6.626  24.077  12.433  0.00  0.00    +0.145 HD
ENDBRANCH  31  32
ENDBRANCH   6  31
ENDBRANCH   2   6
ENDBRANCH   1   3
BRANCH   1  37
ATOM     37  C   ILE A   5      11.773  27.699  18.501  0.00  0.00    +0.241 C 
ATOM     38  N   ILE A   6      11.945  26.864  19.526  0.00  0.00    -0.297 N 
ATOM     39  H   ILE A   6      12.388  25.942  19.338  0.00  0.00    +0.150 HD
ATOM     40  O   ILE A   5      11.097  28.732  18.603  0.00  0.00    -0.273 OA
BRANCH  38  41
ATOM     41  CA  ILE A   6      11.552  27.166  20.879  0.00  0.00    +0.149 C 
BRANCH  41  42
ATOM     42  C   ILE A   6      12.761  27.785  21.545  0.00  0.00    +0.241 C 
ATOM     43  N   GLY A   7      12.660  29.059  21.848  0.00  0.00    -0.295 N 
ATOM     44  H   GLY A   7      11.760  29.545  21.662  0.00  0.00    +0.150 HD
ATOM     45  O   ILE A   6      13.769  27.104  21.769  0.00  0.00    -0.273 OA
BRANCH  43  46
ATOM     46  CA  GLY A   7      13.743  29.810  22.426  0.00  0.00    +0.176 C 
BRANCH  46  47
ATOM     47  C   GLY A   7      13.641  29.906  23.939  0.00  0.00    +0.243 C 
ATOM     48  O   GLY A   7      12.756  29.338  24.587  0.00  0.00    -0.273 OA
ATOM     49  N   ARG A   8      14.605  30.620  24.510  0.00  0.00    -0.298 N 
ATOM     50  H   ARG A   8      15.247  31.181  23.915  0.00  0.00    +0.150 HD
BRANCH  49  51
ATOM     51  CA  ARG A   8      14.777  30.630  25.960  0.00  0.00    +0.137 C 
BRANCH  51  52
ATOM     52  C   ARG A   8      13.592  31.178  26.691  0.00  0.00    +0.227 C 
ATOM     53  O   ARG A   8      13.356  30.791  27.828  0.00  0.00    -0.286 OA
ENDBRANCH  51  52
BRANCH  51  54
ATOM     54  CB  ARG A   8      16.045  31.421  26.329  0.00  0.00    +0.031 C 
BRANCH  54  55
ATOM     55  CG  ARG A   8      17.326  30.755  25.835  0.00  0.00    +0.045 C 
BRANCH  55  56
ATOM     56  CD  ARG A   8      18.588  31.432  26.379  0.00  0.00    +0.174 C 
BRANCH  56  57
ATOM     57  NE  ARG A   8      18.663  32.809  25.939  0.00  0.00    -0.265 N 
ATOM     58  CZ  ARG A   8      18.306  33.904  26.604  0.00  0.00    +0.342 C 
ATOM     59  NH2 ARG A   8      17.890  33.832  27.858  0.00  0.00    -0.292 N 
ATOM     60 HH21 ARG A   8      17.614  34.697  28.365  0.00  0.00    +0.255 HD
ATOM     61 HH22 ARG A   8      17.839  32.910  28.337  0.00  0.00    +0.255 HD
ATOM     62  NH1 ARG A   8      18.385  35.093  26.014  0.00  0.00    -0.292 N 
ATOM     63 HH11 ARG A   8      18.106  35.950  26.533  0.00  0.00    +0.255 HD
ATOM     64 HH12 ARG A   8      18.726  35.166  25.034  0.00  0.00    +0.255 HD
ATOM     65  HE  ARG A   8      19.044  32.961  24.983  0.00  0.00    +0.259 HD
ENDBRANCH  56  57
ENDBRANCH  55  56
ENDBRANCH  54  55
ENDBRANCH  51  54
ENDBRANCH  49  51
ENDBRANCH  46  47
ENDBRANCH  43  46
ENDBRANCH  41  42
BRANCH  41  66
ATOM     66  CB  ILE A   6      11.077  25.912  21.651  0.00  0.00    +0.027 C 
ATOM     67  CG2 ILE A   6      10.691  26.300  23.068  0.00  0.00    +0.002 C 
BRANCH  66  68
ATOM     68  CG1 ILE A   6       9.968  25.168  20.908  0.00  0.00    +0.002 C 
ATOM     69  CD1 ILE A   6       8.771  26.005  20.547  0.00  0.00    +0.000 C 
ENDBRANCH  66  68
ENDBRANCH  41  66
ENDBRANCH  38  41
ENDBRANCH   1  37
BRANCH   1  70
ATOM     70  CB  ILE A   5      13.309  28.464  16.699  0.00  0.00    +0.027 C 
ATOM     71  CG2 ILE A   5      14.462  28.662  17.688  0.00  0.00    +0.002 C 
BRANCH  70  72
ATOM     72  CG1 ILE A   5      13.832  28.254  15.279  0.00  0.00    +0.002 C 
ATOM     73  CD1 ILE A   5      14.913  27.200  15.174  0.00  0.00    +0.000 C 
ENDBRANCH  70  72
ENDBRANCH   1  70
TORSDOF 27
REMARK  Name = ../refined-set-2016/2idw/2idw_pocket.pdb
REMARK  203 active torsions:
REMARK  status: ('A' for Active; 'I' for Inactive)
REMARK    1  A    between atoms: _1  and  _3
REMARK    2  A    between atoms: _3  and  _4
REMARK    3  A    between atoms: _3  and  _6
REMARK    4  A    between atoms: _6  and  _7
REMARK    5  A    between atoms: _7  and  _8
REMARK    6  A    between atoms: _8  and  _9
REMARK    7  A    between atoms: _18  and  _20
REMARK    8  A    between atoms: _20  and  _21
REMARK    9  A    between atoms: _20  and  _23
REMARK   10  A    between atoms: _23  and  _24
REMARK   11  A    between atoms: _27  and  _29
REMARK   12  A    between atoms: _29  and  _30
REMARK   13  A    between atoms: _29  and  _32
REMARK   14  A    between atoms: _32  and  _33
REMARK   15  A    between atoms: _36  and  _38
REMARK   16  A    between atoms: _38  and  _39
REMARK   17  A    between atoms: _38  and  _41
REMARK   18  A    between atoms: _41  and  _42
REMARK   19  A    between atoms: _45  and  _47
REMARK   20  A    between atoms: _47  and  _48
REMARK   21  A    between atoms: _47  and  _50
REMARK   22  A    between atoms: _50  and  _51
REMARK   23  A    between atoms: _54  and  _56
REMARK   24  A    between atoms: _56  and  _57
REMARK   25  A    between atoms: _59  and  _61
REMARK   26  A    between atoms: _61  and  _62
REMARK   27  A    between atoms: _65  and  _67
REMARK   28  A    between atoms: _67  and  _68
REMARK   29  A    between atoms: _67  and  _70
REMARK   30  A    between atoms: _70  and  _71
REMARK   31  A    between atoms: _74  and  _76
REMARK   32  A    between atoms: _76  and  _77
REMARK   33  A    between atoms: _76  and  _79
REMARK   34  A    between atoms: _79  and  _80
REMARK   35  A    between atoms: _83  and  _85
REMARK   36  A    between atoms: _85  and  _86
REMARK   37  A    between atoms: _85  and  _88
REMARK   38  A    between atoms: _88  and  _89
REMARK   39  A    between atoms: _92  and  _94
REMARK   40  A    between atoms: _94  and  _95
REMARK   41  A    between atoms: _94  and  _97
REMARK   42  A    between atoms: _100  and  _102
REMARK   43  A    between atoms: _102  and  _103
REMARK   44  A    between atoms: _102  and  _105
REMARK   45  A    between atoms: _105  and  _106
REMARK   46  A    between atoms: _106  and  _107
REMARK   47  A    between atoms: _107  and  _108
REMARK   48  A    between atoms: _108  and  _109
REMARK   49  A    between atoms: _113  and  _115
REMARK   50  A    between atoms: _115  and  _116
REMARK   51  A    between atoms: _115  and  _118
REMARK   52  A    between atoms: _118  and  _119
REMARK   53  A    between atoms: _119  and  _120
REMARK   54  A    between atoms: _122  and  _124
REMARK   55  A    between atoms: _124  and  _125
REMARK   56  A    between atoms: _124  and  _127
REMARK   57  A    between atoms: _127  and  _128
REMARK   58  A    between atoms: _131  and  _133
REMARK   59  A    between atoms: _133  and  _134
REMARK   60  A    between atoms: _136  and  _138
REMARK   61  A    between atoms: _138  and  _139
REMARK   62  A    between atoms: _141  and  _143
REMARK   63  A    between atoms: _143  and  _144
REMARK   64  A    between atoms: _143  and  _146
REMARK   65  A    between atoms: _146  and  _147
REMARK   66  A    between atoms: _150  and  _152
REMARK   67  A    between atoms: _152  and  _153
REMARK   68  A    between atoms: _155  and  _157
REMARK   69  A    between atoms: _157  and  _158
REMARK   70  A    between atoms: _160  and  _162
REMARK   71  A    between atoms: _162  and  _163
REMARK   72  A    between atoms: _162  and  _165
REMARK   73  A    between atoms: _165  and  _166
REMARK   74  A    between atoms: _172  and  _174
REMARK   75  A    between atoms: _174  and  _175
REMARK   76  A    between atoms: _174  and  _177
REMARK   77  A    between atoms: _177  and  _178
REMARK   78  A    between atoms: _181  and  _183
REMARK   79  A    between atoms: _183  and  _184
REMARK   80  A    between atoms: _183  and  _186
REMARK   81  A    between atoms: _189  and  _191
REMARK   82  A    between atoms: _191  and  _192
REMARK   83  A    between atoms: _191  and  _194
REMARK   84  A    between atoms: _194  and  _195
REMARK   85  A    between atoms: _198  and  _200
REMARK   86  A    between atoms: _200  and  _201
REMARK   87  A    between atoms: _200  and  _203
REMARK   88  A    between atoms: _203  and  _204
REMARK   89  A    between atoms: _208  and  _209
REMARK   90  A    between atoms: _214  and  _216
REMARK   91  A    between atoms: _216  and  _217
REMARK   92  A    between atoms: _220  and  _222
REMARK   93  A    between atoms: _222  and  _223
REMARK   94  A    between atoms: _222  and  _225
REMARK   95  A    between atoms: _225  and  _226
REMARK   96  A    between atoms: _231  and  _233
REMARK   97  A    between atoms: _233  and  _234
REMARK   98  A    between atoms: _233  and  _236
REMARK   99  A    between atoms: _236  and  _237
REMARK  100  A    between atoms: _240  and  _242
REMARK  101  A    between atoms: _242  and  _243
REMARK  102  A    between atoms: _242  and  _245
REMARK  103  A    between atoms: _245  and  _246
REMARK  104  A    between atoms: _249  and  _251
REMARK  105  A    between atoms: _251  and  _252
REMARK  106  A    between atoms: _254  and  _256
REMARK  107  A    between atoms: _256  and  _257
REMARK  108  A    between atoms: _256  and  _259
REMARK  109  A    between atoms: _259  and  _260
REMARK  110  A    between atoms: _260  and  _261
REMARK  111  A    between atoms: _261  and  _262
REMARK  112  A    between atoms: _271  and  _273
REMARK  113  A    between atoms: _273  and  _274
REMARK  114  A    between atoms: _273  and  _276
REMARK  115  A    between atoms: _276  and  _277
REMARK  116  A    between atoms: _277  and  _278
REMARK  117  A    between atoms: _278  and  _279
REMARK  118  A    between atoms: _288  and  _290
REMARK  119  A    between atoms: _290  and  _291
REMARK  120  A    between atoms: _290  and  _293
REMARK  121  A    between atoms: _293  and  _294
REMARK  122  A    between atoms: _297  and  _299
REMARK  123  A    between atoms: _299  and  _300
REMARK  124  A    between atoms: _299  and  _302
REMARK  125  A    between atoms: _302  and  _303
REMARK  126  A    between atoms: _306  and  _308
REMARK  127  A    between atoms: _308  and  _309
REMARK  128  A    between atoms: _308  and  _311
REMARK  129  A    between atoms: _311  and  _312
REMARK  130  A    between atoms: _315  and  _317
REMARK  131  A    between atoms: _317  and  _318
REMARK  132  A    between atoms: _317  and  _320
REMARK  133  A    between atoms: _320  and  _321
REMARK  134  A    between atoms: _324  and  _326
REMARK  135  A    between atoms: _326  and  _327
REMARK  136  A    between atoms: _329  and  _331
REMARK  137  A    between atoms: _331  and  _332
REMARK  138  A    between atoms: _335  and  _337
REMARK  139  A    between atoms: _337  and  _338
REMARK  140  A    between atoms: _337  and  _340
REMARK  141  A    between atoms: _340  and  _341
REMARK  142  A    between atoms: _344  and  _346
REMARK  143  A    between atoms: _346  and  _347
REMARK  144  A    between atoms: _346  and  _349
REMARK  145  A    between atoms: _349  and  _350
REMARK  146  A    between atoms: _353  and  _355
REMARK  147  A    between atoms: _355  and  _356
REMARK  148  A    between atoms: _355  and  _358
REMARK  149  A    between atoms: _358  and  _359
REMARK  150  A    between atoms: _362  and  _364
REMARK  151  A    between atoms: _364  and  _365
REMARK  152  A    between atoms: _364  and  _367
REMARK  153  A    between atoms: _370  and  _372
REMARK  154  A    between atoms: _372  and  _373
REMARK  155  A    between atoms: _372  and  _375
REMARK  156  A    between atoms: _375  and  _376
REMARK  157  A    between atoms: _379  and  _381
REMARK  158  A    between atoms: _381  and  _382
REMARK  159  A    between atoms: _384  and  _386
REMARK  160  A    between atoms: _386  and  _387
REMARK  161  A    between atoms: _389  and  _391
REMARK  162  A    between atoms: _391  and  _392
REMARK  163  A    between atoms: _391  and  _394
REMARK  164  A    between atoms: _394  and  _395
REMARK  165  A    between atoms: _398  and  _400
REMARK  166  A    between atoms: _400  and  _401
REMARK  167  A    between atoms: _403  and  _405
REMARK  168  A    between atoms: _405  and  _406
REMARK  169  A    between atoms: _408  and  _410
REMARK  170  A    between atoms: _410  and  _411
REMARK  171  A    between atoms: _410  and  _413
REMARK  172  A    between atoms: _413  and  _414
REMARK  173  A    between atoms: _417  and  _419
REMARK  174  A    between atoms: _419  and  _420
REMARK  175  A    between atoms: _419  and  _422
REMARK  176  A    between atoms: _422  and  _423
REMARK  177  A    between atoms: _427  and  _428
REMARK  178  A    between atoms: _433  and  _435
REMARK  179  A    between atoms: _435  and  _436
REMARK  180  A    between atoms: _439  and  _441
REMARK  181  A    between atoms: _441  and  _442
REMARK  182  A    between atoms: _441  and  _444
REMARK  183  A    between atoms: _444  and  _445
REMARK  184  A    between atoms: _450  and  _452
REMARK  185  A    between atoms: _452  and  _453
REMARK  186  A    between atoms: _452  and  _455
REMARK  187  A    between atoms: _455  and  _456
REMARK  188  A    between atoms: _459  and  _461
REMARK  189  A    between atoms: _461  and  _462
REMARK  190  A    between atoms: _461  and  _464
REMARK  191  A    between atoms: _464  and  _465
REMARK  192  A    between atoms: _468  and  _470
REMARK  193  A    between atoms: _470  and  _471
REMARK  194  A    between atoms: _473  and  _475
REMARK  195  A    between atoms: _475  and  _476
REMARK  196  A    between atoms: _475  and  _478
REMARK  197  A    between atoms: _478  and  _479
REMARK  198  A    between atoms: _479  and  _480
REMARK  199  A    between atoms: _480  and  _481
REMARK  200  A    between atoms: _490  and  _492
REMARK  201  A    between atoms: _492  and  _493
REMARK  202  A    between atoms: _492  and  _495
REMARK  203  A    between atoms: _495  and  _496
REMARK                            x       y       z     vdW  Elec       q    Type
REMARK                         _______ _______ _______ _____ _____    ______ ____
ROOT
ATOM      1  NE  ARG A   1      21.436  37.067  23.674  0.00  0.00    -0.265 N 
ATOM      2  HE  ARG A   1      20.473  36.675  23.636  0.00  0.00    +0.259 HD
ATOM      3  CZ  ARG A   1      21.626  38.221  23.053  0.00  0.00    +0.342 C 
ATOM      4  NH2 ARG A   1      22.835  38.758  23.081  0.00  0.00    -0.292 N 
ATOM      5 HH21 ARG A   1      23.607  38.274  23.582  0.00  0.00    +0.255 HD
ATOM      6 HH22 ARG A   1      23.013  39.664  22.602  0.00  0.00    +0.255 HD
ATOM      7  NH1 ARG A   1      20.581  38.762  22.448  0.00  0.00    -0.292 N 
ATOM      8 HH11 ARG A   1      19.659  38.281  22.473  0.00  0.00    +0.255 HD
ATOM      9 HH12 ARG A   1      20.682  39.668  21.947  0.00  0.00    +0.255 HD
ENDROOT
BRANCH   1  10
ATOM     10  CD  ARG A   1      22.416  36.293  24.397  0.00  0.00    +0.174 C 
BRANCH  10  11
ATOM     11  CG  ARG A   1      21.788  35.333  25.371  0.00  0.00    +0.045 C 
BRANCH  11  12
ATOM     12  CB  ARG A   1      22.819  34.542  26.171  0.00  0.00    +0.029 C 
BRANCH  12  13
ATOM     13  CA  ARG A   1      22.188  33.562  27.144  0.00  0.00    +0.133 C 
BRANCH  13  14
ATOM     14  N   ARG A   1      21.515  34.275  28.238  0.00  0.00    -0.239 NA
ATOM     15  H   ARG A   1      21.508  35.315  28.249  0.00  0.00    +0.142 HD
ENDBRANCH  13  14
BRANCH  13  16
ATOM     16  C   ARG A   1      23.259  32.626  27.691  0.00  0.00    +0.224 C 
ATOM     17  O   ARG A   1      24.023  33.039  28.563  0.00  0.00    -0.287 OA
ENDBRANCH  13  16
ENDBRANCH  12  13
ENDBRANCH  11  12
ENDBRANCH  10  11
ENDBRANCH   1  10
TORSDOF 6
REMARK  Name = ../refined-set-2016/2idw/2idw_pocket.pdb
REMARK  203 active torsions:
REMARK  status: ('A' for Active; 'I' for Inactive)
REMARK    1  A    between atoms: _1  and  _3
REMARK    2  A    between atoms: _3  and  _4
REMARK    3  A    between atoms: _3  and  _6
REMARK    4  A    between atoms: _6  and  _7
REMARK    5  A    between atoms: _7  and  _8
REMARK    6  A    between atoms: _8  and  _9
REMARK    7  A    between atoms: _18  and  _20
REMARK    8  A    between atoms: _20  and  _21
REMARK    9  A    between atoms: _20  and  _23
REMARK   10  A    between atoms: _23  and  _24
REMARK   11  A    between atoms: _27  and  _29
REMARK   12  A    between atoms: _29  and  _30
REMARK   13  A    between atoms: _29  and  _32
REMARK   14  A    between atoms: _32  and  _33
REMARK   15  A    between atoms: _36  and  _38
REMARK   16  A    between atoms: _38  and  _39
REMARK   17  A    between atoms: _38  and  _41
REMARK   18  A    between atoms: _41  and  _42
REMARK   19  A    between atoms: _45  and  _47
REMARK   20  A    between atoms: _47  and  _48
REMARK   21  A    between atoms: _47  and  _50
REMARK   22  A    between atoms: _50  and  _51
REMARK   23  A    between atoms: _54  and  _56
REMARK   24  A    between atoms: _56  and  _57
REMARK   25  A    between atoms: _59  and  _61
REMARK   26  A    between atoms: _61  and  _62
REMARK   27  A    between atoms: _65  and  _67
REMARK   28  A    between atoms: _67  and  _68
REMARK   29  A    between atoms: _67  and  _70
REMARK   30  A    between atoms: _70  and  _71
REMARK   31  A    between atoms: _74  and  _76
REMARK   32  A    between atoms: _76  and  _77
REMARK   33  A    between atoms: _76  and  _79
REMARK   34  A    between atoms: _79  and  _80
REMARK   35  A    between atoms: _83  and  _85
REMARK   36  A    between atoms: _85  and  _86
REMARK   37  A    between atoms: _85  and  _88
REMARK   38  A    between atoms: _88  and  _89
REMARK   39  A    between atoms: _92  and  _94
REMARK   40  A    between atoms: _94  and  _95
REMARK   41  A    between atoms: _94  and  _97
REMARK   42  A    between atoms: _100  and  _102
REMARK   43  A    between atoms: _102  and  _103
REMARK   44  A    between atoms: _102  and  _105
REMARK   45  A    between atoms: _105  and  _106
REMARK   46  A    between atoms: _106  and  _107
REMARK   47  A    between atoms: _107  and  _108
REMARK   48  A    between atoms: _108  and  _109
REMARK   49  A    between atoms: _113  and  _115
REMARK   50  A    between atoms: _115  and  _116
REMARK   51  A    between atoms: _115  and  _118
REMARK   52  A    between atoms: _118  and  _119
REMARK   53  A    between atoms: _119  and  _120
REMARK   54  A    between atoms: _122  and  _124
REMARK   55  A    between atoms: _124  and  _125
REMARK   56  A    between atoms: _124  and  _127
REMARK   57  A    between atoms: _127  and  _128
REMARK   58  A    between atoms: _131  and  _133
REMARK   59  A    between atoms: _133  and  _134
REMARK   60  A    between atoms: _136  and  _138
REMARK   61  A    between atoms: _138  and  _139
REMARK   62  A    between atoms: _141  and  _143
REMARK   63  A    between atoms: _143  and  _144
REMARK   64  A    between atoms: _143  and  _146
REMARK   65  A    between atoms: _146  and  _147
REMARK   66  A    between atoms: _150  and  _152
REMARK   67  A    between atoms: _152  and  _153
REMARK   68  A    between atoms: _155  and  _157
REMARK   69  A    between atoms: _157  and  _158
REMARK   70  A    between atoms: _160  and  _162
REMARK   71  A    between atoms: _162  and  _163
REMARK   72  A    between atoms: _162  and  _165
REMARK   73  A    between atoms: _165  and  _166
REMARK   74  A    between atoms: _172  and  _174
REMARK   75  A    between atoms: _174  and  _175
REMARK   76  A    between atoms: _174  and  _177
REMARK   77  A    between atoms: _177  and  _178
REMARK   78  A    between atoms: _181  and  _183
REMARK   79  A    between atoms: _183  and  _184
REMARK   80  A    between atoms: _183  and  _186
REMARK   81  A    between atoms: _189  and  _191
REMARK   82  A    between atoms: _191  and  _192
REMARK   83  A    between atoms: _191  and  _194
REMARK   84  A    between atoms: _194  and  _195
REMARK   85  A    between atoms: _198  and  _200
REMARK   86  A    between atoms: _200  and  _201
REMARK   87  A    between atoms: _200  and  _203
REMARK   88  A    between atoms: _203  and  _204
REMARK   89  A    between atoms: _208  and  _209
REMARK   90  A    between atoms: _214  and  _216
REMARK   91  A    between atoms: _216  and  _217
REMARK   92  A    between atoms: _220  and  _222
REMARK   93  A    between atoms: _222  and  _223
REMARK   94  A    between atoms: _222  and  _225
REMARK   95  A    between atoms: _225  and  _226
REMARK   96  A    between atoms: _231  and  _233
REMARK   97  A    between atoms: _233  and  _234
REMARK   98  A    between atoms: _233  and  _236
REMARK   99  A    between atoms: _236  and  _237
REMARK  100  A    between atoms: _240  and  _242
REMARK  101  A    between atoms: _242  and  _243
REMARK  102  A    between atoms: _242  and  _245
REMARK  103  A    between atoms: _245  and  _246
REMARK  104  A    between atoms: _249  and  _251
REMARK  105  A    between atoms: _251  and  _252
REMARK  106  A    between atoms: _254  and  _256
REMARK  107  A    between atoms: _256  and  _257
REMARK  108  A    between atoms: _256  and  _259
REMARK  109  A    between atoms: _259  and  _260
REMARK  110  A    between atoms: _260  and  _261
REMARK  111  A    between atoms: _261  and  _262
REMARK  112  A    between atoms: _271  and  _273
REMARK  113  A    between atoms: _273  and  _274
REMARK  114  A    between atoms: _273  and  _276
REMARK  115  A    between atoms: _276  and  _277
REMARK  116  A    between atoms: _277  and  _278
REMARK  117  A    between atoms: _278  and  _279
REMARK  118  A    between atoms: _288  and  _290
REMARK  119  A    between atoms: _290  and  _291
REMARK  120  A    between atoms: _290  and  _293
REMARK  121  A    between atoms: _293  and  _294
REMARK  122  A    between atoms: _297  and  _299
REMARK  123  A    between atoms: _299  and  _300
REMARK  124  A    between atoms: _299  and  _302
REMARK  125  A    between atoms: _302  and  _303
REMARK  126  A    between atoms: _306  and  _308
REMARK  127  A    between atoms: _308  and  _309
REMARK  128  A    between atoms: _308  and  _311
REMARK  129  A    between atoms: _311  and  _312
REMARK  130  A    between atoms: _315  and  _317
REMARK  131  A    between atoms: _317  and  _318
REMARK  132  A    between atoms: _317  and  _320
REMARK  133  A    between atoms: _320  and  _321
REMARK  134  A    between atoms: _324  and  _326
REMARK  135  A    between atoms: _326  and  _327
REMARK  136  A    between atoms: _329  and  _331
REMARK  137  A    between atoms: _331  and  _332
REMARK  138  A    between atoms: _335  and  _337
REMARK  139  A    between atoms: _337  and  _338
REMARK  140  A    between atoms: _337  and  _340
REMARK  141  A    between atoms: _340  and  _341
REMARK  142  A    between atoms: _344  and  _346
REMARK  143  A    between atoms: _346  and  _347
REMARK  144  A    between atoms: _346  and  _349
REMARK  145  A    between atoms: _349  and  _350
REMARK  146  A    between atoms: _353  and  _355
REMARK  147  A    between atoms: _355  and  _356
REMARK  148  A    between atoms: _355  and  _358
REMARK  149  A    between atoms: _358  and  _359
REMARK  150  A    between atoms: _362  and  _364
REMARK  151  A    between atoms: _364  and  _365
REMARK  152  A    between atoms: _364  and  _367
REMARK  153  A    between atoms: _370  and  _372
REMARK  154  A    between atoms: _372  and  _373
REMARK  155  A    between atoms: _372  and  _375
REMARK  156  A    between atoms: _375  and  _376
REMARK  157  A    between atoms: _379  and  _381
REMARK  158  A    between atoms: _381  and  _382
REMARK  159  A    between atoms: _384  and  _386
REMARK  160  A    between atoms: _386  and  _387
REMARK  161  A    between atoms: _389  and  _391
REMARK  162  A    between atoms: _391  and  _392
REMARK  163  A    between atoms: _391  and  _394
REMARK  164  A    between atoms: _394  and  _395
REMARK  165  A    between atoms: _398  and  _400
REMARK  166  A    between atoms: _400  and  _401
REMARK  167  A    between atoms: _403  and  _405
REMARK  168  A    between atoms: _405  and  _406
REMARK  169  A    between atoms: _408  and  _410
REMARK  170  A    between atoms: _410  and  _411
REMARK  171  A    between atoms: _410  and  _413
REMARK  172  A    between atoms: _413  and  _414
REMARK  173  A    between atoms: _417  and  _419
REMARK  174  A    between atoms: _419  and  _420
REMARK  175  A    between atoms: _419  and  _422
REMARK  176  A    between atoms: _422  and  _423
REMARK  177  A    between atoms: _427  and  _428
REMARK  178  A    between atoms: _433  and  _435
REMARK  179  A    between atoms: _435  and  _436
REMARK  180  A    between atoms: _439  and  _441
REMARK  181  A    between atoms: _441  and  _442
REMARK  182  A    between atoms: _441  and  _444
REMARK  183  A    between atoms: _444  and  _445
REMARK  184  A    between atoms: _450  and  _452
REMARK  185  A    between atoms: _452  and  _453
REMARK  186  A    between atoms: _452  and  _455
REMARK  187  A    between atoms: _455  and  _456
REMARK  188  A    between atoms: _459  and  _461
REMARK  189  A    between atoms: _461  and  _462
REMARK  190  A    between atoms: _461  and  _464
REMARK  191  A    between atoms: _464  and  _465
REMARK  192  A    between atoms: _468  and  _470
REMARK  193  A    between atoms: _470  and  _471
REMARK  194  A    between atoms: _473  and  _475
REMARK  195  A    between atoms: _475  and  _476
REMARK  196  A    between atoms: _475  and  _478
REMARK  197  A    between atoms: _478  and  _479
REMARK  198  A    between atoms: _479  and  _480
REMARK  199  A    between atoms: _480  and  _481
REMARK  200  A    between atoms: _490  and  _492
REMARK  201  A    between atoms: _492  and  _493
REMARK  202  A    between atoms: _492  and  _495
REMARK  203  A    between atoms: _495  and  _496
REMARK                            x       y       z     vdW  Elec       q    Type
REMARK                         _______ _______ _______ _____ _____    ______ ____
ROOT
ATOM      1  C   GLY A   5      20.498  24.904  16.221  0.00  0.00    +0.243 C 
ATOM      2  N   ALA A   6      21.798  24.838  16.456  0.00  0.00    -0.297 N 
ATOM      3  H   ALA A   6      22.126  24.744  17.438  0.00  0.00    +0.150 HD
ATOM      4  O   GLY A   5      20.031  25.033  15.082  0.00  0.00    -0.273 OA
ENDROOT
BRANCH   2   5
ATOM      5  CA  ALA A   6      22.789  24.893  15.386  0.00  0.00    +0.149 C 
ATOM      6  CB  ALA A   6      23.903  25.835  15.740  0.00  0.00    +0.031 C 
BRANCH   5   7
ATOM      7  C   ALA A   6      23.356  23.483  15.186  0.00  0.00    +0.241 C 
ATOM      8  O   ALA A   6      23.882  22.868  16.122  0.00  0.00    -0.273 OA
ATOM      9  N   ASP A   7      23.301  22.996  13.955  0.00  0.00    -0.297 N 
ATOM     10  H   ASP A   7      22.776  23.513  13.222  0.00  0.00    +0.150 HD
BRANCH   9  11
ATOM     11  CA  ASP A   7      23.969  21.741  13.614  0.00  0.00    +0.160 C 
BRANCH  11  12
ATOM     12  C   ASP A   7      25.477  21.891  13.716  0.00  0.00    +0.241 C 
ATOM     13  O   ASP A   7      26.174  20.957  14.111  0.00  0.00    -0.273 OA
ATOM     14  N   ASP A   8      25.953  23.045  13.295  0.00  0.00    -0.297 N 
ATOM     15  H   ASP A   8      25.261  23.799  13.109  0.00  0.00    +0.150 HD
BRANCH  14  16
ATOM     16  CA  ASP A   8      27.352  23.365  13.066  0.00  0.00    +0.160 C 
BRANCH  16  17
ATOM     17  C   ASP A   8      27.814  24.515  13.921  0.00  0.00    +0.241 C 
ATOM     18  O   ASP A   8      27.031  25.314  14.408  0.00  0.00    -0.273 OA
ATOM     19  N   THR A   9      29.120  24.582  14.104  0.00  0.00    -0.295 N 
ATOM     20  H   THR A   9      29.707  23.841  13.670  0.00  0.00    +0.150 HD
BRANCH  19  21
ATOM     21  CA  THR A   9      29.810  25.640  14.885  0.00  0.00    +0.176 C 
BRANCH  21  22
ATOM     22  C   THR A   9      30.268  26.691  13.913  0.00  0.00    +0.243 C 
ATOM     23  N   VAL A  10      29.918  27.942  14.202  0.00  0.00    -0.298 N 
ATOM     24  H   VAL A  10      29.423  28.122  15.098  0.00  0.00    +0.150 HD
ATOM     25  O   THR A   9      30.952  26.389  12.931  0.00  0.00    -0.273 OA
BRANCH  23  26
ATOM     26  CA  VAL A  10      30.196  29.077  13.320  0.00  0.00    +0.137 C 
BRANCH  26  27
ATOM     27  CB  VAL A  10      28.936  29.582  12.574  0.00  0.00    +0.026 C 
ATOM     28  CG2 VAL A  10      28.116  28.416  12.007  0.00  0.00    +0.002 C 
ATOM     29  CG1 VAL A  10      29.382  30.520  11.465  0.00  0.00    +0.002 C 
ENDBRANCH  26  27
BRANCH  26  30
ATOM     30  C   VAL A  10      30.828  30.165  14.159  0.00  0.00    +0.227 C 
ATOM     31  O   VAL A  10      30.220  30.620  15.156  0.00  0.00    -0.286 OA
ENDBRANCH  26  30
ENDBRANCH  23  26
ENDBRANCH  21  22
BRANCH  21  32
ATOM     32  CB  THR A   9      30.961  25.001  15.662  0.00  0.00    +0.137 C 
ATOM     33  CG2 THR A   9      31.843  26.006  16.336  0.00  0.00    +0.034 C 
BRANCH  32  34
ATOM     34  OG1 THR A   9      30.387  24.103  16.640  0.00  0.00    -0.382 OA
ATOM     35  HG1 THR A   9      29.856  23.408  16.176  0.00  0.00    +0.210 HD
ENDBRANCH  32  34
ENDBRANCH  21  32
ENDBRANCH  19  21
ENDBRANCH  16  17
BRANCH  16  36
ATOM     36  CB  ASP A   8      27.533  23.731  11.592  0.00  0.00    +0.143 C 
BRANCH  36  37
ATOM     37  CG  ASP A   8      27.005  22.655  10.658  0.00  0.00    +0.367 C 
ATOM     38  OD2 ASP A   8      27.226  21.469  10.846  0.00  0.00    -0.246 OA
ATOM     39  OD1 ASP A   8      26.289  23.019   9.708  0.00  0.00    -0.246 OA
ENDBRANCH  36  37
ENDBRANCH  16  36
ENDBRANCH  14  16
ENDBRANCH  11  12
BRANCH  11  40
ATOM     40  CB  ASP A   7      23.628  21.291  12.179  0.00  0.00    +0.143 C 
BRANCH  40  41
ATOM     41  CG  ASP A   7      22.167  21.063  11.886  0.00  0.00    +0.367 C 
ATOM     42  OD2 ASP A   7      21.305  20.961  12.779  0.00  0.00    -0.246 OA
ATOM     43  OD1 ASP A   7      21.855  21.020  10.654  0.00  0.00    -0.246 OA
ENDBRANCH  40  41
ENDBRANCH  11  40
ENDBRANCH   9  11
ENDBRANCH   5   7
ENDBRANCH   2   5
BRANCH   1  44
ATOM     44  CA  GLY A   5      19.538  24.816  17.405  0.00  0.00    +0.176 C 
BRANCH  44  46
ATOM     45  C   THR A   4      20.631  23.509  19.177  0.00  0.00    +0.243 C 
ATOM     46  N   GLY A   5      20.198  24.659  18.681  0.00  0.00    -0.295 N 
ATOM     47  H   GLY A   5      20.344  25.514  19.254  0.00  0.00    +0.150 HD
ATOM     48  O   THR A   4      20.437  22.428  18.588  0.00  0.00    -0.273 OA
BRANCH  45  49
ATOM     49  CA  THR A   4      21.406  23.513  20.471  0.00  0.00    +0.176 C 
BRANCH  49  51
ATOM     50  C   ASP A   3      22.915  25.358  20.109  0.00  0.00    +0.241 C 
ATOM     51  N   THR A   4      21.943  24.813  20.822  0.00  0.00    -0.295 N 
ATOM     52  H   THR A   4      21.560  25.323  21.643  0.00  0.00    +0.150 HD
ATOM     53  O   ASP A   3      23.376  24.807  19.094  0.00  0.00    -0.273 OA
BRANCH  50  54
ATOM     54  CA  ASP A   3      23.451  26.717  20.577  0.00  0.00    +0.160 C 
BRANCH  54  57
ATOM     55  C   LEU A   2      24.658  27.140  22.676  0.00  0.00    +0.241 C 
ATOM     56  O   LEU A   2      23.676  27.648  23.221  0.00  0.00    -0.273 OA
ATOM     57  N   ASP A   3      24.610  26.549  21.479  0.00  0.00    -0.297 N 
ATOM     58  H   ASP A   3      25.408  25.956  21.174  0.00  0.00    +0.150 HD
BRANCH  55  59
ATOM     59  CA  LEU A   2      26.032  27.238  23.334  0.00  0.00    +0.149 C 
BRANCH  59  61
ATOM     60  C   LEU A   1      26.781  29.398  22.427  0.00  0.00    +0.238 C 
ATOM     61  N   LEU A   2      26.383  28.659  23.484  0.00  0.00    -0.297 N 
ATOM     62  H   LEU A   2      26.323  29.103  24.423  0.00  0.00    +0.150 HD
ATOM     63  O   LEU A   1      26.944  28.897  21.318  0.00  0.00    -0.274 OA
BRANCH  60  64
ATOM     64  CA  LEU A   1      26.969  30.897  22.634  0.00  0.00    +0.145 C 
BRANCH  64  65
ATOM     65  N   LEU A   1      28.294  31.268  22.214  0.00  0.00    -0.238 NA
ATOM     66  H   LEU A   1      28.461  31.386  21.194  0.00  0.00    +0.142 HD
ENDBRANCH  64  65
BRANCH  64  67
ATOM     67  CB  LEU A   1      25.992  31.682  21.739  0.00  0.00    +0.026 C 
BRANCH  67  68
ATOM     68  CG  LEU A   1      24.515  31.508  22.023  0.00  0.00    +0.002 C 
ATOM     69  CD2 LEU A   1      24.146  32.117  23.368  0.00  0.00    +0.000 C 
ATOM     70  CD1 LEU A   1      23.735  32.161  20.896  0.00  0.00    +0.000 C 
ENDBRANCH  67  68
ENDBRANCH  64  67
ENDBRANCH  60  64
ENDBRANCH  59  61
BRANCH  59  71
ATOM     71  CB  LEU A   2      26.030  26.569  24.691  0.00  0.00    +0.029 C 
BRANCH  71  72
ATOM     72  CG  LEU A   2      27.345  26.677  25.463  0.00  0.00    +0.002 C 
ATOM     73  CD2 LEU A   2      27.179  25.972  26.836  0.00  0.00    +0.000 C 
ATOM     74  CD1 LEU A   2      28.494  26.108  24.664  0.00  0.00    +0.000 C 
ENDBRANCH  71  72
ENDBRANCH  59  71
ENDBRANCH  55  59
ENDBRANCH  54  57
BRANCH  54  75
ATOM     75  CB  ASP A   3      23.899  27.606  19.422  0.00  0.00    +0.143 C 
BRANCH  75  76
ATOM     76  CG  ASP A   3      22.845  28.060  18.482  0.00  0.00    +0.367 C 
ATOM     77  OD2 ASP A   3      21.700  27.501  18.655  0.00  0.00    -0.246 OA
ATOM     78  OD1 ASP A   3      23.036  28.903  17.610  0.00  0.00    -0.246 OA
ENDBRANCH  75  76
ENDBRANCH  54  75
ENDBRANCH  50  54
ENDBRANCH  49  51
BRANCH  49  79
ATOM     79  CB  THR A   4      20.554  22.946  21.587  0.00  0.00    +0.137 C 
ATOM     80  CG2 THR A   4      21.347  22.697  22.871  0.00  0.00    +0.034 C 
BRANCH  79  81
ATOM     81  OG1 THR A   4      19.486  23.838  21.890  0.00  0.00    -0.382 OA
ATOM     82  HG1 THR A   4      18.925  23.964  21.084  0.00  0.00    +0.210 HD
ENDBRANCH  79  81
ENDBRANCH  49  79
ENDBRANCH  45  49
ENDBRANCH  44  46
ENDBRANCH   1  44
TORSDOF 35
REMARK  Name = ../refined-set-2016/2idw/2idw_pocket.pdb
REMARK  203 active torsions:
REMARK  status: ('A' for Active; 'I' for Inactive)
REMARK    1  A    between atoms: _1  and  _3
REMARK    2  A    between atoms: _3  and  _4
REMARK    3  A    between atoms: _3  and  _6
REMARK    4  A    between atoms: _6  and  _7
REMARK    5  A    between atoms: _7  and  _8
REMARK    6  A    between atoms: _8  and  _9
REMARK    7  A    between atoms: _18  and  _20
REMARK    8  A    between atoms: _20  and  _21
REMARK    9  A    between atoms: _20  and  _23
REMARK   10  A    between atoms: _23  and  _24
REMARK   11  A    between atoms: _27  and  _29
REMARK   12  A    between atoms: _29  and  _30
REMARK   13  A    between atoms: _29  and  _32
REMARK   14  A    between atoms: _32  and  _33
REMARK   15  A    between atoms: _36  and  _38
REMARK   16  A    between atoms: _38  and  _39
REMARK   17  A    between atoms: _38  and  _41
REMARK   18  A    between atoms: _41  and  _42
REMARK   19  A    between atoms: _45  and  _47
REMARK   20  A    between atoms: _47  and  _48
REMARK   21  A    between atoms: _47  and  _50
REMARK   22  A    between atoms: _50  and  _51
REMARK   23  A    between atoms: _54  and  _56
REMARK   24  A    between atoms: _56  and  _57
REMARK   25  A    between atoms: _59  and  _61
REMARK   26  A    between atoms: _61  and  _62
REMARK   27  A    between atoms: _65  and  _67
REMARK   28  A    between atoms: _67  and  _68
REMARK   29  A    between atoms: _67  and  _70
REMARK   30  A    between atoms: _70  and  _71
REMARK   31  A    between atoms: _74  and  _76
REMARK   32  A    between atoms: _76  and  _77
REMARK   33  A    between atoms: _76  and  _79
REMARK   34  A    between atoms: _79  and  _80
REMARK   35  A    between atoms: _83  and  _85
REMARK   36  A    between atoms: _85  and  _86
REMARK   37  A    between atoms: _85  and  _88
REMARK   38  A    between atoms: _88  and  _89
REMARK   39  A    between atoms: _92  and  _94
REMARK   40  A    between atoms: _94  and  _95
REMARK   41  A    between atoms: _94  and  _97
REMARK   42  A    between atoms: _100  and  _102
REMARK   43  A    between atoms: _102  and  _103
REMARK   44  A    between atoms: _102  and  _105
REMARK   45  A    between atoms: _105  and  _106
REMARK   46  A    between atoms: _106  and  _107
REMARK   47  A    between atoms: _107  and  _108
REMARK   48  A    between atoms: _108  and  _109
REMARK   49  A    between atoms: _113  and  _115
REMARK   50  A    between atoms: _115  and  _116
REMARK   51  A    between atoms: _115  and  _118
REMARK   52  A    between atoms: _118  and  _119
REMARK   53  A    between atoms: _119  and  _120
REMARK   54  A    between atoms: _122  and  _124
REMARK   55  A    between atoms: _124  and  _125
REMARK   56  A    between atoms: _124  and  _127
REMARK   57  A    between atoms: _127  and  _128
REMARK   58  A    between atoms: _131  and  _133
REMARK   59  A    between atoms: _133  and  _134
REMARK   60  A    between atoms: _136  and  _138
REMARK   61  A    between atoms: _138  and  _139
REMARK   62  A    between atoms: _141  and  _143
REMARK   63  A    between atoms: _143  and  _144
REMARK   64  A    between atoms: _143  and  _146
REMARK   65  A    between atoms: _146  and  _147
REMARK   66  A    between atoms: _150  and  _152
REMARK   67  A    between atoms: _152  and  _153
REMARK   68  A    between atoms: _155  and  _157
REMARK   69  A    between atoms: _157  and  _158
REMARK   70  A    between atoms: _160  and  _162
REMARK   71  A    between atoms: _162  and  _163
REMARK   72  A    between atoms: _162  and  _165
REMARK   73  A    between atoms: _165  and  _166
REMARK   74  A    between atoms: _172  and  _174
REMARK   75  A    between atoms: _174  and  _175
REMARK   76  A    between atoms: _174  and  _177
REMARK   77  A    between atoms: _177  and  _178
REMARK   78  A    between atoms: _181  and  _183
REMARK   79  A    between atoms: _183  and  _184
REMARK   80  A    between atoms: _183  and  _186
REMARK   81  A    between atoms: _189  and  _191
REMARK   82  A    between atoms: _191  and  _192
REMARK   83  A    between atoms: _191  and  _194
REMARK   84  A    between atoms: _194  and  _195
REMARK   85  A    between atoms: _198  and  _200
REMARK   86  A    between atoms: _200  and  _201
REMARK   87  A    between atoms: _200  and  _203
REMARK   88  A    between atoms: _203  and  _204
REMARK   89  A    between atoms: _208  and  _209
REMARK   90  A    between atoms: _214  and  _216
REMARK   91  A    between atoms: _216  and  _217
REMARK   92  A    between atoms: _220  and  _222
REMARK   93  A    between atoms: _222  and  _223
REMARK   94  A    between atoms: _222  and  _225
REMARK   95  A    between atoms: _225  and  _226
REMARK   96  A    between atoms: _231  and  _233
REMARK   97  A    between atoms: _233  and  _234
REMARK   98  A    between atoms: _233  and  _236
REMARK   99  A    between atoms: _236  and  _237
REMARK  100  A    between atoms: _240  and  _242
REMARK  101  A    between atoms: _242  and  _243
REMARK  102  A    between atoms: _242  and  _245
REMARK  103  A    between atoms: _245  and  _246
REMARK  104  A    between atoms: _249  and  _251
REMARK  105  A    between atoms: _251  and  _252
REMARK  106  A    between atoms: _254  and  _256
REMARK  107  A    between atoms: _256  and  _257
REMARK  108  A    between atoms: _256  and  _259
REMARK  109  A    between atoms: _259  and  _260
REMARK  110  A    between atoms: _260  and  _261
REMARK  111  A    between atoms: _261  and  _262
REMARK  112  A    between atoms: _271  and  _273
REMARK  113  A    between atoms: _273  and  _274
REMARK  114  A    between atoms: _273  and  _276
REMARK  115  A    between atoms: _276  and  _277
REMARK  116  A    between atoms: _277  and  _278
REMARK  117  A    between atoms: _278  and  _279
REMARK  118  A    between atoms: _288  and  _290
REMARK  119  A    between atoms: _290  and  _291
REMARK  120  A    between atoms: _290  and  _293
REMARK  121  A    between atoms: _293  and  _294
REMARK  122  A    between atoms: _297  and  _299
REMARK  123  A    between atoms: _299  and  _300
REMARK  124  A    between atoms: _299  and  _302
REMARK  125  A    between atoms: _302  and  _303
REMARK  126  A    between atoms: _306  and  _308
REMARK  127  A    between atoms: _308  and  _309
REMARK  128  A    between atoms: _308  and  _311
REMARK  129  A    between atoms: _311  and  _312
REMARK  130  A    between atoms: _315  and  _317
REMARK  131  A    between atoms: _317  and  _318
REMARK  132  A    between atoms: _317  and  _320
REMARK  133  A    between atoms: _320  and  _321
REMARK  134  A    between atoms: _324  and  _326
REMARK  135  A    between atoms: _326  and  _327
REMARK  136  A    between atoms: _329  and  _331
REMARK  137  A    between atoms: _331  and  _332
REMARK  138  A    between atoms: _335  and  _337
REMARK  139  A    between atoms: _337  and  _338
REMARK  140  A    between atoms: _337  and  _340
REMARK  141  A    between atoms: _340  and  _341
REMARK  142  A    between atoms: _344  and  _346
REMARK  143  A    between atoms: _346  and  _347
REMARK  144  A    between atoms: _346  and  _349
REMARK  145  A    between atoms: _349  and  _350
REMARK  146  A    between atoms: _353  and  _355
REMARK  147  A    between atoms: _355  and  _356
REMARK  148  A    between atoms: _355  and  _358
REMARK  149  A    between atoms: _358  and  _359
REMARK  150  A    between atoms: _362  and  _364
REMARK  151  A    between atoms: _364  and  _365
REMARK  152  A    between atoms: _364  and  _367
REMARK  153  A    between atoms: _370  and  _372
REMARK  154  A    between atoms: _372  and  _373
REMARK  155  A    between atoms: _372  and  _375
REMARK  156  A    between atoms: _375  and  _376
REMARK  157  A    between atoms: _379  and  _381
REMARK  158  A    between atoms: _381  and  _382
REMARK  159  A    between atoms: _384  and  _386
REMARK  160  A    between atoms: _386  and  _387
REMARK  161  A    between atoms: _389  and  _391
REMARK  162  A    between atoms: _391  and  _392
REMARK  163  A    between atoms: _391  and  _394
REMARK  164  A    between atoms: _394  and  _395
REMARK  165  A    between atoms: _398  and  _400
REMARK  166  A    between atoms: _400  and  _401
REMARK  167  A    between atoms: _403  and  _405
REMARK  168  A    between atoms: _405  and  _406
REMARK  169  A    between atoms: _408  and  _410
REMARK  170  A    between atoms: _410  and  _411
REMARK  171  A    between atoms: _410  and  _413
REMARK  172  A    between atoms: _413  and  _414
REMARK  173  A    between atoms: _417  and  _419
REMARK  174  A    between atoms: _419  and  _420
REMARK  175  A    between atoms: _419  and  _422
REMARK  176  A    between atoms: _422  and  _423
REMARK  177  A    between atoms: _427  and  _428
REMARK  178  A    between atoms: _433  and  _435
REMARK  179  A    between atoms: _435  and  _436
REMARK  180  A    between atoms: _439  and  _441
REMARK  181  A    between atoms: _441  and  _442
REMARK  182  A    between atoms: _441  and  _444
REMARK  183  A    between atoms: _444  and  _445
REMARK  184  A    between atoms: _450  and  _452
REMARK  185  A    between atoms: _452  and  _453
REMARK  186  A    between atoms: _452  and  _455
REMARK  187  A    between atoms: _455  and  _456
REMARK  188  A    between atoms: _459  and  _461
REMARK  189  A    between atoms: _461  and  _462
REMARK  190  A    between atoms: _461  and  _464
REMARK  191  A    between atoms: _464  and  _465
REMARK  192  A    between atoms: _468  and  _470
REMARK  193  A    between atoms: _470  and  _471
REMARK  194  A    between atoms: _473  and  _475
REMARK  195  A    between atoms: _475  and  _476
REMARK  196  A    between atoms: _475  and  _478
REMARK  197  A    between atoms: _478  and  _479
REMARK  198  A    between atoms: _479  and  _480
REMARK  199  A    between atoms: _480  and  _481
REMARK  200  A    between atoms: _490  and  _492
REMARK  201  A    between atoms: _492  and  _493
REMARK  202  A    between atoms: _492  and  _495
REMARK  203  A    between atoms: _495  and  _496
REMARK                            x       y       z     vdW  Elec       q    Type
REMARK                         _______ _______ _______ _____ _____    ______ ____
ROOT
ATOM      1  C   GLY A   3      19.093  30.758   8.663  0.00  0.00    +0.243 C 
ATOM      2  N   ILE A   4      18.630  31.507   9.661  0.00  0.00    -0.297 N 
ATOM      3  H   ILE A   4      19.251  31.761  10.456  0.00  0.00    +0.150 HD
ATOM      4  O   GLY A   3      18.437  30.521   7.639  0.00  0.00    -0.273 OA
ENDROOT
BRANCH   2   5
ATOM      5  CA  ILE A   4      17.257  31.966   9.634  0.00  0.00    +0.149 C 
BRANCH   5   6
ATOM      6  C   ILE A   4      17.017  32.929   8.485  0.00  0.00    +0.241 C 
ATOM      7  N   GLY A   5      18.039  33.691   8.103  0.00  0.00    -0.295 N 
ATOM      8  H   GLY A   5      18.980  33.497   8.500  0.00  0.00    +0.150 HD
ATOM      9  O   ILE A   4      15.896  32.987   7.979  0.00  0.00    -0.273 OA
BRANCH   7  10
ATOM     10  CA  GLY A   5      17.895  34.788   7.150  0.00  0.00    +0.176 C 
BRANCH  10  11
ATOM     11  C   GLY A   5      18.423  34.518   5.784  0.00  0.00    +0.243 C 
ATOM     12  N   GLY A   6      19.021  33.361   5.508  0.00  0.00    -0.296 N 
ATOM     13  H   GLY A   6      19.076  32.639   6.254  0.00  0.00    +0.150 HD
ATOM     14  O   GLY A   5      18.304  35.381   4.912  0.00  0.00    -0.273 OA
BRANCH  12  15
ATOM     15  CA  GLY A   6      19.596  33.066   4.220  0.00  0.00    +0.163 C 
BRANCH  15  16
ATOM     16  C   GLY A   6      20.963  32.435   4.409  0.00  0.00    +0.229 C 
ATOM     17  O   GLY A   6      21.250  31.872   5.449  0.00  0.00    -0.286 OA
ENDBRANCH  15  16
ENDBRANCH  12  15
ENDBRANCH  10  11
ENDBRANCH   7  10
ENDBRANCH   5   6
BRANCH   5  18
ATOM     18  CB  ILE A   4      16.853  32.619  10.976  0.00  0.00    +0.027 C 
ATOM     19  CG2 ILE A   4      17.431  34.001  11.144  0.00  0.00    +0.002 C 
BRANCH  18  20
ATOM     20  CG1 ILE A   4      15.341  32.572  11.170  0.00  0.00    +0.002 C 
ATOM     21  CD1 ILE A   4      14.876  33.025  12.542  0.00  0.00    +0.000 C 
ENDBRANCH  18  20
ENDBRANCH   5  18
ENDBRANCH   2   5
BRANCH   1  22
ATOM     22  CA  GLY A   3      20.480  30.172   8.867  0.00  0.00    +0.176 C 
BRANCH  22  25
ATOM     23  C   GLY A   2      21.720  28.807   7.246  0.00  0.00    +0.243 C 
ATOM     24  O   GLY A   2      21.767  27.860   7.998  0.00  0.00    -0.273 OA
ATOM     25  N   GLY A   3      21.093  29.909   7.568  0.00  0.00    -0.295 N 
ATOM     26  H   GLY A   3      21.026  30.653   6.845  0.00  0.00    +0.150 HD
BRANCH  23  27
ATOM     27  CA  GLY A   2      22.224  28.759   5.837  0.00  0.00    +0.176 C 
BRANCH  27  29
ATOM     28  C   ILE A   1      24.614  28.572   5.442  0.00  0.00    +0.238 C 
ATOM     29  N   GLY A   2      23.453  28.007   5.702  0.00  0.00    -0.296 N 
ATOM     30  H   GLY A   2      23.418  26.974   5.815  0.00  0.00    +0.150 HD
ATOM     31  O   ILE A   1      24.733  29.781   5.268  0.00  0.00    -0.274 OA
BRANCH  28  32
ATOM     32  CA  ILE A   1      25.817  27.633   5.378  0.00  0.00    +0.145 C 
BRANCH  32  33
ATOM     33  N   ILE A   1      26.704  28.113   4.344  0.00  0.00    -0.238 NA
ATOM     34  H   ILE A   1      26.873  29.135   4.248  0.00  0.00    +0.142 HD
ENDBRANCH  32  33
BRANCH  32  35
ATOM     35  CB  ILE A   1      26.549  27.612   6.734  0.00  0.00    +0.025 C 
ATOM     36  CG2 ILE A   1      26.937  28.991   7.236  0.00  0.00    +0.002 C 
BRANCH  35  37
ATOM     37  CG1 ILE A   1      25.805  26.908   7.904  0.00  0.00    +0.002 C 
ATOM     38  CD1 ILE A   1      25.649  25.436   7.621  0.00  0.00    +0.000 C 
ENDBRANCH  35  37
ENDBRANCH  32  35
ENDBRANCH  28  32
ENDBRANCH  27  29
ENDBRANCH  23  27
ENDBRANCH  22  25
ENDBRANCH   1  22
TORSDOF 16
REMARK  Name = ../refined-set-2016/2idw/2idw_pocket.pdb
REMARK  203 active torsions:
REMARK  status: ('A' for Active; 'I' for Inactive)
REMARK    1  A    between atoms: _1  and  _3
REMARK    2  A    between atoms: _3  and  _4
REMARK    3  A    between atoms: _3  and  _6
REMARK    4  A    between atoms: _6  and  _7
REMARK    5  A    between atoms: _7  and  _8
REMARK    6  A    between atoms: _8  and  _9
REMARK    7  A    between atoms: _18  and  _20
REMARK    8  A    between atoms: _20  and  _21
REMARK    9  A    between atoms: _20  and  _23
REMARK   10  A    between atoms: _23  and  _24
REMARK   11  A    between atoms: _27  and  _29
REMARK   12  A    between atoms: _29  and  _30
REMARK   13  A    between atoms: _29  and  _32
REMARK   14  A    between atoms: _32  and  _33
REMARK   15  A    between atoms: _36  and  _38
REMARK   16  A    between atoms: _38  and  _39
REMARK   17  A    between atoms: _38  and  _41
REMARK   18  A    between atoms: _41  and  _42
REMARK   19  A    between atoms: _45  and  _47
REMARK   20  A    between atoms: _47  and  _48
REMARK   21  A    between atoms: _47  and  _50
REMARK   22  A    between atoms: _50  and  _51
REMARK   23  A    between atoms: _54  and  _56
REMARK   24  A    between atoms: _56  and  _57
REMARK   25  A    between atoms: _59  and  _61
REMARK   26  A    between atoms: _61  and  _62
REMARK   27  A    between atoms: _65  and  _67
REMARK   28  A    between atoms: _67  and  _68
REMARK   29  A    between atoms: _67  and  _70
REMARK   30  A    between atoms: _70  and  _71
REMARK   31  A    between atoms: _74  and  _76
REMARK   32  A    between atoms: _76  and  _77
REMARK   33  A    between atoms: _76  and  _79
REMARK   34  A    between atoms: _79  and  _80
REMARK   35  A    between atoms: _83  and  _85
REMARK   36  A    between atoms: _85  and  _86
REMARK   37  A    between atoms: _85  and  _88
REMARK   38  A    between atoms: _88  and  _89
REMARK   39  A    between atoms: _92  and  _94
REMARK   40  A    between atoms: _94  and  _95
REMARK   41  A    between atoms: _94  and  _97
REMARK   42  A    between atoms: _100  and  _102
REMARK   43  A    between atoms: _102  and  _103
REMARK   44  A    between atoms: _102  and  _105
REMARK   45  A    between atoms: _105  and  _106
REMARK   46  A    between atoms: _106  and  _107
REMARK   47  A    between atoms: _107  and  _108
REMARK   48  A    between atoms: _108  and  _109
REMARK   49  A    between atoms: _113  and  _115
REMARK   50  A    between atoms: _115  and  _116
REMARK   51  A    between atoms: _115  and  _118
REMARK   52  A    between atoms: _118  and  _119
REMARK   53  A    between atoms: _119  and  _120
REMARK   54  A    between atoms: _122  and  _124
REMARK   55  A    between atoms: _124  and  _125
REMARK   56  A    between atoms: _124  and  _127
REMARK   57  A    between atoms: _127  and  _128
REMARK   58  A    between atoms: _131  and  _133
REMARK   59  A    between atoms: _133  and  _134
REMARK   60  A    between atoms: _136  and  _138
REMARK   61  A    between atoms: _138  and  _139
REMARK   62  A    between atoms: _141  and  _143
REMARK   63  A    between atoms: _143  and  _144
REMARK   64  A    between atoms: _143  and  _146
REMARK   65  A    between atoms: _146  and  _147
REMARK   66  A    between atoms: _150  and  _152
REMARK   67  A    between atoms: _152  and  _153
REMARK   68  A    between atoms: _155  and  _157
REMARK   69  A    between atoms: _157  and  _158
REMARK   70  A    between atoms: _160  and  _162
REMARK   71  A    between atoms: _162  and  _163
REMARK   72  A    between atoms: _162  and  _165
REMARK   73  A    between atoms: _165  and  _166
REMARK   74  A    between atoms: _172  and  _174
REMARK   75  A    between atoms: _174  and  _175
REMARK   76  A    between atoms: _174  and  _177
REMARK   77  A    between atoms: _177  and  _178
REMARK   78  A    between atoms: _181  and  _183
REMARK   79  A    between atoms: _183  and  _184
REMARK   80  A    between atoms: _183  and  _186
REMARK   81  A    between atoms: _189  and  _191
REMARK   82  A    between atoms: _191  and  _192
REMARK   83  A    between atoms: _191  and  _194
REMARK   84  A    between atoms: _194  and  _195
REMARK   85  A    between atoms: _198  and  _200
REMARK   86  A    between atoms: _200  and  _201
REMARK   87  A    between atoms: _200  and  _203
REMARK   88  A    between atoms: _203  and  _204
REMARK   89  A    between atoms: _208  and  _209
REMARK   90  A    between atoms: _214  and  _216
REMARK   91  A    between atoms: _216  and  _217
REMARK   92  A    between atoms: _220  and  _222
REMARK   93  A    between atoms: _222  and  _223
REMARK   94  A    between atoms: _222  and  _225
REMARK   95  A    between atoms: _225  and  _226
REMARK   96  A    between atoms: _231  and  _233
REMARK   97  A    between atoms: _233  and  _234
REMARK   98  A    between atoms: _233  and  _236
REMARK   99  A    between atoms: _236  and  _237
REMARK  100  A    between atoms: _240  and  _242
REMARK  101  A    between atoms: _242  and  _243
REMARK  102  A    between atoms: _242  and  _245
REMARK  103  A    between atoms: _245  and  _246
REMARK  104  A    between atoms: _249  and  _251
REMARK  105  A    between atoms: _251  and  _252
REMARK  106  A    between atoms: _254  and  _256
REMARK  107  A    between atoms: _256  and  _257
REMARK  108  A    between atoms: _256  and  _259
REMARK  109  A    between atoms: _259  and  _260
REMARK  110  A    between atoms: _260  and  _261
REMARK  111  A    between atoms: _261  and  _262
REMARK  112  A    between atoms: _271  and  _273
REMARK  113  A    between atoms: _273  and  _274
REMARK  114  A    between atoms: _273  and  _276
REMARK  115  A    between atoms: _276  and  _277
REMARK  116  A    between atoms: _277  and  _278
REMARK  117  A    between atoms: _278  and  _279
REMARK  118  A    between atoms: _288  and  _290
REMARK  119  A    between atoms: _290  and  _291
REMARK  120  A    between atoms: _290  and  _293
REMARK  121  A    between atoms: _293  and  _294
REMARK  122  A    between atoms: _297  and  _299
REMARK  123  A    between atoms: _299  and  _300
REMARK  124  A    between atoms: _299  and  _302
REMARK  125  A    between atoms: _302  and  _303
REMARK  126  A    between atoms: _306  and  _308
REMARK  127  A    between atoms: _308  and  _309
REMARK  128  A    between atoms: _308  and  _311
REMARK  129  A    between atoms: _311  and  _312
REMARK  130  A    between atoms: _315  and  _317
REMARK  131  A    between atoms: _317  and  _318
REMARK  132  A    between atoms: _317  and  _320
REMARK  133  A    between atoms: _320  and  _321
REMARK  134  A    between atoms: _324  and  _326
REMARK  135  A    between atoms: _326  and  _327
REMARK  136  A    between atoms: _329  and  _331
REMARK  137  A    between atoms: _331  and  _332
REMARK  138  A    between atoms: _335  and  _337
REMARK  139  A    between atoms: _337  and  _338
REMARK  140  A    between atoms: _337  and  _340
REMARK  141  A    between atoms: _340  and  _341
REMARK  142  A    between atoms: _344  and  _346
REMARK  143  A    between atoms: _346  and  _347
REMARK  144  A    between atoms: _346  and  _349
REMARK  145  A    between atoms: _349  and  _350
REMARK  146  A    between atoms: _353  and  _355
REMARK  147  A    between atoms: _355  and  _356
REMARK  148  A    between atoms: _355  and  _358
REMARK  149  A    between atoms: _358  and  _359
REMARK  150  A    between atoms: _362  and  _364
REMARK  151  A    between atoms: _364  and  _365
REMARK  152  A    between atoms: _364  and  _367
REMARK  153  A    between atoms: _370  and  _372
REMARK  154  A    between atoms: _372  and  _373
REMARK  155  A    between atoms: _372  and  _375
REMARK  156  A    between atoms: _375  and  _376
REMARK  157  A    between atoms: _379  and  _381
REMARK  158  A    between atoms: _381  and  _382
REMARK  159  A    between atoms: _384  and  _386
REMARK  160  A    between atoms: _386  and  _387
REMARK  161  A    between atoms: _389  and  _391
REMARK  162  A    between atoms: _391  and  _392
REMARK  163  A    between atoms: _391  and  _394
REMARK  164  A    between atoms: _394  and  _395
REMARK  165  A    between atoms: _398  and  _400
REMARK  166  A    between atoms: _400  and  _401
REMARK  167  A    between atoms: _403  and  _405
REMARK  168  A    between atoms: _405  and  _406
REMARK  169  A    between atoms: _408  and  _410
REMARK  170  A    between atoms: _410  and  _411
REMARK  171  A    between atoms: _410  and  _413
REMARK  172  A    between atoms: _413  and  _414
REMARK  173  A    between atoms: _417  and  _419
REMARK  174  A    between atoms: _419  and  _420
REMARK  175  A    between atoms: _419  and  _422
REMARK  176  A    between atoms: _422  and  _423
REMARK  177  A    between atoms: _427  and  _428
REMARK  178  A    between atoms: _433  and  _435
REMARK  179  A    between atoms: _435  and  _436
REMARK  180  A    between atoms: _439  and  _441
REMARK  181  A    between atoms: _441  and  _442
REMARK  182  A    between atoms: _441  and  _444
REMARK  183  A    between atoms: _444  and  _445
REMARK  184  A    between atoms: _450  and  _452
REMARK  185  A    between atoms: _452  and  _453
REMARK  186  A    between atoms: _452  and  _455
REMARK  187  A    between atoms: _455  and  _456
REMARK  188  A    between atoms: _459  and  _461
REMARK  189  A    between atoms: _461  and  _462
REMARK  190  A    between atoms: _461  and  _464
REMARK  191  A    between atoms: _464  and  _465
REMARK  192  A    between atoms: _468  and  _470
REMARK  193  A    between atoms: _470  and  _471
REMARK  194  A    between atoms: _473  and  _475
REMARK  195  A    between atoms: _475  and  _476
REMARK  196  A    between atoms: _475  and  _478
REMARK  197  A    between atoms: _478  and  _479
REMARK  198  A    between atoms: _479  and  _480
REMARK  199  A    between atoms: _480  and  _481
REMARK  200  A    between atoms: _490  and  _492
REMARK  201  A    between atoms: _492  and  _493
REMARK  202  A    between atoms: _492  and  _495
REMARK  203  A    between atoms: _495  and  _496
REMARK                            x       y       z     vdW  Elec       q    Type
REMARK                         _______ _______ _______ _____ _____    ______ ____
ROOT
ATOM      1  CA  LEU A   1      33.042  27.334  10.053  0.00  0.00    +0.133 C 
ENDROOT
BRANCH   1   2
ATOM      2  N   LEU A   1      33.300  26.490  11.196  0.00  0.00    -0.239 NA
ATOM      3  H   LEU A   1      32.578  26.421  11.941  0.00  0.00    +0.142 HD
ENDBRANCH   1   2
BRANCH   1   4
ATOM      4  C   LEU A   1      33.332  28.760  10.468  0.00  0.00    +0.224 C 
ATOM      5  O   LEU A   1      32.799  29.201  11.473  0.00  0.00    -0.287 OA
ENDBRANCH   1   4
BRANCH   1   6
ATOM      6  CB  LEU A   1      31.572  27.194   9.633  0.00  0.00    +0.025 C 
BRANCH   6   7
ATOM      7  CG  LEU A   1      31.128  25.745   9.370  0.00  0.00    +0.002 C 
ATOM      8  CD2 LEU A   1      29.660  25.702   8.957  0.00  0.00    +0.000 C 
ATOM      9  CD1 LEU A   1      32.004  25.053   8.361  0.00  0.00    +0.000 C 
ENDBRANCH   6   7
ENDBRANCH   1   6
TORSDOF 4
REMARK  Name = ../refined-set-2016/2idw/2idw_pocket.pdb
REMARK  203 active torsions:
REMARK  status: ('A' for Active; 'I' for Inactive)
REMARK    1  A    between atoms: _1  and  _3
REMARK    2  A    between atoms: _3  and  _4
REMARK    3  A    between atoms: _3  and  _6
REMARK    4  A    between atoms: _6  and  _7
REMARK    5  A    between atoms: _7  and  _8
REMARK    6  A    between atoms: _8  and  _9
REMARK    7  A    between atoms: _18  and  _20
REMARK    8  A    between atoms: _20  and  _21
REMARK    9  A    between atoms: _20  and  _23
REMARK   10  A    between atoms: _23  and  _24
REMARK   11  A    between atoms: _27  and  _29
REMARK   12  A    between atoms: _29  and  _30
REMARK   13  A    between atoms: _29  and  _32
REMARK   14  A    between atoms: _32  and  _33
REMARK   15  A    between atoms: _36  and  _38
REMARK   16  A    between atoms: _38  and  _39
REMARK   17  A    between atoms: _38  and  _41
REMARK   18  A    between atoms: _41  and  _42
REMARK   19  A    between atoms: _45  and  _47
REMARK   20  A    between atoms: _47  and  _48
REMARK   21  A    between atoms: _47  and  _50
REMARK   22  A    between atoms: _50  and  _51
REMARK   23  A    between atoms: _54  and  _56
REMARK   24  A    between atoms: _56  and  _57
REMARK   25  A    between atoms: _59  and  _61
REMARK   26  A    between atoms: _61  and  _62
REMARK   27  A    between atoms: _65  and  _67
REMARK   28  A    between atoms: _67  and  _68
REMARK   29  A    between atoms: _67  and  _70
REMARK   30  A    between atoms: _70  and  _71
REMARK   31  A    between atoms: _74  and  _76
REMARK   32  A    between atoms: _76  and  _77
REMARK   33  A    between atoms: _76  and  _79
REMARK   34  A    between atoms: _79  and  _80
REMARK   35  A    between atoms: _83  and  _85
REMARK   36  A    between atoms: _85  and  _86
REMARK   37  A    between atoms: _85  and  _88
REMARK   38  A    between atoms: _88  and  _89
REMARK   39  A    between atoms: _92  and  _94
REMARK   40  A    between atoms: _94  and  _95
REMARK   41  A    between atoms: _94  and  _97
REMARK   42  A    between atoms: _100  and  _102
REMARK   43  A    between atoms: _102  and  _103
REMARK   44  A    between atoms: _102  and  _105
REMARK   45  A    between atoms: _105  and  _106
REMARK   46  A    between atoms: _106  and  _107
REMARK   47  A    between atoms: _107  and  _108
REMARK   48  A    between atoms: _108  and  _109
REMARK   49  A    between atoms: _113  and  _115
REMARK   50  A    between atoms: _115  and  _116
REMARK   51  A    between atoms: _115  and  _118
REMARK   52  A    between atoms: _118  and  _119
REMARK   53  A    between atoms: _119  and  _120
REMARK   54  A    between atoms: _122  and  _124
REMARK   55  A    between atoms: _124  and  _125
REMARK   56  A    between atoms: _124  and  _127
REMARK   57  A    between atoms: _127  and  _128
REMARK   58  A    between atoms: _131  and  _133
REMARK   59  A    between atoms: _133  and  _134
REMARK   60  A    between atoms: _136  and  _138
REMARK   61  A    between atoms: _138  and  _139
REMARK   62  A    between atoms: _141  and  _143
REMARK   63  A    between atoms: _143  and  _144
REMARK   64  A    between atoms: _143  and  _146
REMARK   65  A    between atoms: _146  and  _147
REMARK   66  A    between atoms: _150  and  _152
REMARK   67  A    between atoms: _152  and  _153
REMARK   68  A    between atoms: _155  and  _157
REMARK   69  A    between atoms: _157  and  _158
REMARK   70  A    between atoms: _160  and  _162
REMARK   71  A    between atoms: _162  and  _163
REMARK   72  A    between atoms: _162  and  _165
REMARK   73  A    between atoms: _165  and  _166
REMARK   74  A    between atoms: _172  and  _174
REMARK   75  A    between atoms: _174  and  _175
REMARK   76  A    between atoms: _174  and  _177
REMARK   77  A    between atoms: _177  and  _178
REMARK   78  A    between atoms: _181  and  _183
REMARK   79  A    between atoms: _183  and  _184
REMARK   80  A    between atoms: _183  and  _186
REMARK   81  A    between atoms: _189  and  _191
REMARK   82  A    between atoms: _191  and  _192
REMARK   83  A    between atoms: _191  and  _194
REMARK   84  A    between atoms: _194  and  _195
REMARK   85  A    between atoms: _198  and  _200
REMARK   86  A    between atoms: _200  and  _201
REMARK   87  A    between atoms: _200  and  _203
REMARK   88  A    between atoms: _203  and  _204
REMARK   89  A    between atoms: _208  and  _209
REMARK   90  A    between atoms: _214  and  _216
REMARK   91  A    between atoms: _216  and  _217
REMARK   92  A    between atoms: _220  and  _222
REMARK   93  A    between atoms: _222  and  _223
REMARK   94  A    between atoms: _222  and  _225
REMARK   95  A    between atoms: _225  and  _226
REMARK   96  A    between atoms: _231  and  _233
REMARK   97  A    between atoms: _233  and  _234
REMARK   98  A    between atoms: _233  and  _236
REMARK   99  A    between atoms: _236  and  _237
REMARK  100  A    between atoms: _240  and  _242
REMARK  101  A    between atoms: _242  and  _243
REMARK  102  A    between atoms: _242  and  _245
REMARK  103  A    between atoms: _245  and  _246
REMARK  104  A    between atoms: _249  and  _251
REMARK  105  A    between atoms: _251  and  _252
REMARK  106  A    between atoms: _254  and  _256
REMARK  107  A    between atoms: _256  and  _257
REMARK  108  A    between atoms: _256  and  _259
REMARK  109  A    between atoms: _259  and  _260
REMARK  110  A    between atoms: _260  and  _261
REMARK  111  A    between atoms: _261  and  _262
REMARK  112  A    between atoms: _271  and  _273
REMARK  113  A    between atoms: _273  and  _274
REMARK  114  A    between atoms: _273  and  _276
REMARK  115  A    between atoms: _276  and  _277
REMARK  116  A    between atoms: _277  and  _278
REMARK  117  A    between atoms: _278  and  _279
REMARK  118  A    between atoms: _288  and  _290
REMARK  119  A    between atoms: _290  and  _291
REMARK  120  A    between atoms: _290  and  _293
REMARK  121  A    between atoms: _293  and  _294
REMARK  122  A    between atoms: _297  and  _299
REMARK  123  A    between atoms: _299  and  _300
REMARK  124  A    between atoms: _299  and  _302
REMARK  125  A    between atoms: _302  and  _303
REMARK  126  A    between atoms: _306  and  _308
REMARK  127  A    between atoms: _308  and  _309
REMARK  128  A    between atoms: _308  and  _311
REMARK  129  A    between atoms: _311  and  _312
REMARK  130  A    between atoms: _315  and  _317
REMARK  131  A    between atoms: _317  and  _318
REMARK  132  A    between atoms: _317  and  _320
REMARK  133  A    between atoms: _320  and  _321
REMARK  134  A    between atoms: _324  and  _326
REMARK  135  A    between atoms: _326  and  _327
REMARK  136  A    between atoms: _329  and  _331
REMARK  137  A    between atoms: _331  and  _332
REMARK  138  A    between atoms: _335  and  _337
REMARK  139  A    between atoms: _337  and  _338
REMARK  140  A    between atoms: _337  and  _340
REMARK  141  A    between atoms: _340  and  _341
REMARK  142  A    between atoms: _344  and  _346
REMARK  143  A    between atoms: _346  and  _347
REMARK  144  A    between atoms: _346  and  _349
REMARK  145  A    between atoms: _349  and  _350
REMARK  146  A    between atoms: _353  and  _355
REMARK  147  A    between atoms: _355  and  _356
REMARK  148  A    between atoms: _355  and  _358
REMARK  149  A    between atoms: _358  and  _359
REMARK  150  A    between atoms: _362  and  _364
REMARK  151  A    between atoms: _364  and  _365
REMARK  152  A    between atoms: _364  and  _367
REMARK  153  A    between atoms: _370  and  _372
REMARK  154  A    between atoms: _372  and  _373
REMARK  155  A    between atoms: _372  and  _375
REMARK  156  A    between atoms: _375  and  _376
REMARK  157  A    between atoms: _379  and  _381
REMARK  158  A    between atoms: _381  and  _382
REMARK  159  A    between atoms: _384  and  _386
REMARK  160  A    between atoms: _386  and  _387
REMARK  161  A    between atoms: _389  and  _391
REMARK  162  A    between atoms: _391  and  _392
REMARK  163  A    between atoms: _391  and  _394
REMARK  164  A    between atoms: _394  and  _395
REMARK  165  A    between atoms: _398  and  _400
REMARK  166  A    between atoms: _400  and  _401
REMARK  167  A    between atoms: _403  and  _405
REMARK  168  A    between atoms: _405  and  _406
REMARK  169  A    between atoms: _408  and  _410
REMARK  170  A    between atoms: _410  and  _411
REMARK  171  A    between atoms: _410  and  _413
REMARK  172  A    between atoms: _413  and  _414
REMARK  173  A    between atoms: _417  and  _419
REMARK  174  A    between atoms: _419  and  _420
REMARK  175  A    between atoms: _419  and  _422
REMARK  176  A    between atoms: _422  and  _423
REMARK  177  A    between atoms: _427  and  _428
REMARK  178  A    between atoms: _433  and  _435
REMARK  179  A    between atoms: _435  and  _436
REMARK  180  A    between atoms: _439  and  _441
REMARK  181  A    between atoms: _441  and  _442
REMARK  182  A    between atoms: _441  and  _444
REMARK  183  A    between atoms: _444  and  _445
REMARK  184  A    between atoms: _450  and  _452
REMARK  185  A    between atoms: _452  and  _453
REMARK  186  A    between atoms: _452  and  _455
REMARK  187  A    between atoms: _455  and  _456
REMARK  188  A    between atoms: _459  and  _461
REMARK  189  A    between atoms: _461  and  _462
REMARK  190  A    between atoms: _461  and  _464
REMARK  191  A    between atoms: _464  and  _465
REMARK  192  A    between atoms: _468  and  _470
REMARK  193  A    between atoms: _470  and  _471
REMARK  194  A    between atoms: _473  and  _475
REMARK  195  A    between atoms: _475  and  _476
REMARK  196  A    between atoms: _475  and  _478
REMARK  197  A    between atoms: _478  and  _479
REMARK  198  A    between atoms: _479  and  _480
REMARK  199  A    between atoms: _480  and  _481
REMARK  200  A    between atoms: _490  and  _492
REMARK  201  A    between atoms: _492  and  _493
REMARK  202  A    between atoms: _492  and  _495
REMARK  203  A    between atoms: _495  and  _496
REMARK                            x       y       z     vdW  Elec       q    Type
REMARK                         _______ _______ _______ _____ _____    ______ ____
ROOT
ATOM      1  C   ILE A   5      28.594  28.400  18.107  0.00  0.00    +0.241 C 
ATOM      2  N   ILE A   6      28.431  27.667  19.208  0.00  0.00    -0.297 N 
ATOM      3  H   ILE A   6      27.941  28.108  20.013  0.00  0.00    +0.150 HD
ATOM      4  O   ILE A   5      29.264  27.993  17.160  0.00  0.00    -0.273 OA
ENDROOT
BRANCH   2   5
ATOM      5  CA  ILE A   6      28.885  26.304  19.365  0.00  0.00    +0.149 C 
BRANCH   5   6
ATOM      6  C   ILE A   6      27.698  25.402  19.087  0.00  0.00    +0.241 C 
ATOM      7  O   ILE A   6      26.704  25.382  19.851  0.00  0.00    -0.273 OA
ATOM      8  N   GLY A   7      27.741  24.681  17.998  0.00  0.00    -0.295 N 
ATOM      9  H   GLY A   7      28.598  24.727  17.411  0.00  0.00    +0.150 HD
BRANCH   8  10
ATOM     10  CA  GLY A   7      26.664  23.825  17.567  0.00  0.00    +0.176 C 
BRANCH  10  11
ATOM     11  C   GLY A   7      26.839  22.380  17.969  0.00  0.00    +0.243 C 
ATOM     12  O   GLY A   7      27.777  21.997  18.663  0.00  0.00    -0.273 OA
ATOM     13  N   ARG A   8      25.903  21.564  17.538  0.00  0.00    -0.297 N 
ATOM     14  H   ARG A   8      25.213  21.894  16.833  0.00  0.00    +0.150 HD
BRANCH  13  15
ATOM     15  CA  ARG A   8      25.826  20.189  18.046  0.00  0.00    +0.149 C 
BRANCH  15  16
ATOM     16  C   ARG A   8      27.035  19.352  17.687  0.00  0.00    +0.241 C 
ATOM     17  O   ARG A   8      27.347  18.414  18.427  0.00  0.00    -0.273 OA
ATOM     18  N   ASN A   9      27.716  19.666  16.605  0.00  0.00    -0.298 N 
ATOM     19  H   ASN A   9      27.415  20.461  16.006  0.00  0.00    +0.150 HD
BRANCH  18  20
ATOM     20  CA  ASN A   9      28.909  18.879  16.253  0.00  0.00    +0.146 C 
BRANCH  20  21
ATOM     21  C   ASN A   9      29.938  18.927  17.376  0.00  0.00    +0.227 C 
ATOM     22  O   ASN A   9      30.654  17.915  17.554  0.00  0.00    -0.286 OA
ENDBRANCH  20  21
BRANCH  20  23
ATOM     23  CB  ASN A   9      29.522  19.355  14.937  0.00  0.00    +0.112 C 
BRANCH  23  24
ATOM     24  CG  ASN A   9      30.199  20.695  15.029  0.00  0.00    +0.222 C 
ATOM     25  OD1 ASN A   9      29.616  21.693  15.448  0.00  0.00    -0.275 OA
ATOM     26  ND2 ASN A   9      31.451  20.699  14.588  0.00  0.00    -0.329 N 
ATOM     27 HD21 ASN A   9      31.998  21.583  14.584  0.00  0.00    +0.145 HD
ATOM     28 HD22 ASN A   9      31.885  19.818  14.247  0.00  0.00    +0.145 HD
ENDBRANCH  23  24
ENDBRANCH  20  23
ENDBRANCH  18  20
ENDBRANCH  15  16
BRANCH  15  29
ATOM     29  CB  ARG A   8      24.542  19.483  17.545  0.00  0.00    +0.033 C 
BRANCH  29  30
ATOM     30  CG  ARG A   8      23.275  20.133  18.074  0.00  0.00    +0.045 C 
BRANCH  30  31
ATOM     31  CD  ARG A   8      22.030  19.315  17.723  0.00  0.00    +0.174 C 
BRANCH  31  32
ATOM     32  NE  ARG A   8      21.781  19.313  16.294  0.00  0.00    -0.265 N 
ATOM     33  HE  ARG A   8      21.294  20.134  15.881  0.00  0.00    +0.259 HD
ATOM     34  CZ  ARG A   8      22.141  18.318  15.476  0.00  0.00    +0.342 C 
ATOM     35  NH2 ARG A   8      22.678  17.210  15.881  0.00  0.00    -0.292 N 
ATOM     36 HH21 ARG A   8      22.852  17.056  16.895  0.00  0.00    +0.255 HD
ATOM     37 HH22 ARG A   8      22.935  16.475  15.192  0.00  0.00    +0.255 HD
ATOM     38  NH1 ARG A   8      21.900  18.497  14.164  0.00  0.00    -0.292 N 
ATOM     39 HH11 ARG A   8      21.455  19.376  13.832  0.00  0.00    +0.255 HD
ATOM     40 HH12 ARG A   8      22.159  17.756  13.482  0.00  0.00    +0.255 HD
ENDBRANCH  31  32
ENDBRANCH  30  31
ENDBRANCH  29  30
ENDBRANCH  15  29
ENDBRANCH  13  15
ENDBRANCH  10  11
ENDBRANCH   8  10
ENDBRANCH   5   6
BRANCH   5  41
ATOM     41  CB  ILE A   6      29.453  26.020  20.768  0.00  0.00    +0.027 C 
ATOM     42  CG2 ILE A   6      29.930  24.594  20.852  0.00  0.00    +0.002 C 
BRANCH  41  43
ATOM     43  CG1 ILE A   6      30.506  27.057  21.160  0.00  0.00    +0.002 C 
ATOM     44  CD1 ILE A   6      31.691  27.132  20.190  0.00  0.00    +0.000 C 
ENDBRANCH  41  43
ENDBRANCH   5  41
ENDBRANCH   2   5
BRANCH   1  45
ATOM     45  CA  ILE A   5      27.906  29.740  18.110  0.00  0.00    +0.149 C 
BRANCH  45  48
ATOM     46  C   ASN A   4      29.094  31.841  18.353  0.00  0.00    +0.241 C 
ATOM     47  O   ASN A   4      28.613  32.061  19.484  0.00  0.00    -0.273 OA
ATOM     48  N   ILE A   5      28.824  30.776  17.645  0.00  0.00    -0.297 N 
ATOM     49  H   ILE A   5      29.279  30.662  16.717  0.00  0.00    +0.150 HD
BRANCH  46  50
ATOM     50  CA  ASN A   4      30.019  32.906  17.747  0.00  0.00    +0.158 C 
BRANCH  50  52
ATOM     51  C   ALA A   3      28.289  34.286  16.750  0.00  0.00    +0.241 C 
ATOM     52  N   ASN A   4      29.266  34.161  17.642  0.00  0.00    -0.297 N 
ATOM     53  H   ASN A   4      29.498  34.957  18.269  0.00  0.00    +0.150 HD
ATOM     54  O   ALA A   3      28.054  33.469  15.882  0.00  0.00    -0.273 OA
BRANCH  51  55
ATOM     55  CA  ALA A   3      27.409  35.529  16.919  0.00  0.00    +0.149 C 
ATOM     56  CB  ALA A   3      26.250  35.146  17.816  0.00  0.00    +0.031 C 
BRANCH  55  59
ATOM     57  C   PRO A   2      26.648  37.248  15.360  0.00  0.00    +0.241 C 
ATOM     58  O   PRO A   2      26.716  38.130  16.230  0.00  0.00    -0.273 OA
ATOM     59  N   ALA A   3      27.008  35.991  15.618  0.00  0.00    -0.297 N 
ATOM     60  H   ALA A   3      26.998  35.307  14.835  0.00  0.00    +0.150 HD
BRANCH  57  64
ATOM     61  C   THR A   1      27.713  36.391  12.570  0.00  0.00    +0.244 C 
ATOM     62  O   THR A   1      28.600  37.131  13.024  0.00  0.00    -0.273 OA
ATOM     63  N   PRO A   2      26.450  36.570  12.966  0.00  0.00    -0.272 N 
ATOM     64  CA  PRO A   2      26.121  37.565  13.969  0.00  0.00    +0.152 C 
ATOM     65  CB  PRO A   2      24.573  37.595  14.020  0.00  0.00    +0.031 C 
ATOM     66  CG  PRO A   2      24.207  36.240  13.504  0.00  0.00    +0.024 C 
ATOM     67  CD  PRO A   2      25.246  35.890  12.455  0.00  0.00    +0.094 C 
BRANCH  61  68
ATOM     68  CA  THR A   1      28.028  35.286  11.600  0.00  0.00    +0.172 C 
BRANCH  68  69
ATOM     69  N   THR A   1      29.154  35.621  10.736  0.00  0.00    -0.236 NA
ATOM     70  H   THR A   1      30.104  35.306  11.017  0.00  0.00    +0.142 HD
ENDBRANCH  68  69
BRANCH  68  71
ATOM     71  CB  THR A   1      28.344  33.958  12.374  0.00  0.00    +0.135 C 
ATOM     72  CG2 THR A   1      29.638  34.038  13.160  0.00  0.00    +0.034 C 
BRANCH  71  73
ATOM     73  OG1 THR A   1      27.264  33.699  13.263  0.00  0.00    -0.383 OA
ATOM     74  HG1 THR A   1      27.443  32.863  13.763  0.00  0.00    +0.210 HD
ENDBRANCH  71  73
ENDBRANCH  68  71
ENDBRANCH  61  68
ENDBRANCH  57  64
ENDBRANCH  55  59
ENDBRANCH  51  55
ENDBRANCH  50  52
BRANCH  50  75
ATOM     75  CB  ASN A   4      31.242  33.069  18.634  0.00  0.00    +0.114 C 
BRANCH  75  76
ATOM     76  CG  ASN A   4      32.245  34.055  18.071  0.00  0.00    +0.222 C 
ATOM     77  ND2 ASN A   4      32.980  34.715  18.974  0.00  0.00    -0.329 N 
ATOM     78 HD21 ASN A   4      32.835  34.542  19.989  0.00  0.00    +0.145 HD
ATOM     79 HD22 ASN A   4      33.696  35.401  18.660  0.00  0.00    +0.145 HD
ATOM     80  OD1 ASN A   4      32.383  34.228  16.856  0.00  0.00    -0.275 OA
ENDBRANCH  75  76
ENDBRANCH  50  75
ENDBRANCH  46  50
ENDBRANCH  45  48
BRANCH  45  81
ATOM     81  CB  ILE A   5      26.606  29.722  17.293  0.00  0.00    +0.027 C 
ATOM     82  CG2 ILE A   5      25.847  31.052  17.467  0.00  0.00    +0.002 C 
BRANCH  81  83
ATOM     83  CG1 ILE A   5      26.794  29.393  15.836  0.00  0.00    +0.002 C 
ATOM     84  CD1 ILE A   5      25.494  29.366  15.024  0.00  0.00    +0.000 C 
ENDBRANCH  81  83
ENDBRANCH  45  81
ENDBRANCH   1  45
TORSDOF 31
REMARK  Name = ../refined-set-2016/2idw/2idw_pocket.pdb
REMARK  203 active torsions:
REMARK  status: ('A' for Active; 'I' for Inactive)
REMARK    1  A    between atoms: _1  and  _3
REMARK    2  A    between atoms: _3  and  _4
REMARK    3  A    between atoms: _3  and  _6
REMARK    4  A    between atoms: _6  and  _7
REMARK    5  A    between atoms: _7  and  _8
REMARK    6  A    between atoms: _8  and  _9
REMARK    7  A    between atoms: _18  and  _20
REMARK    8  A    between atoms: _20  and  _21
REMARK    9  A    between atoms: _20  and  _23
REMARK   10  A    between atoms: _23  and  _24
REMARK   11  A    between atoms: _27  and  _29
REMARK   12  A    between atoms: _29  and  _30
REMARK   13  A    between atoms: _29  and  _32
REMARK   14  A    between atoms: _32  and  _33
REMARK   15  A    between atoms: _36  and  _38
REMARK   16  A    between atoms: _38  and  _39
REMARK   17  A    between atoms: _38  and  _41
REMARK   18  A    between atoms: _41  and  _42
REMARK   19  A    between atoms: _45  and  _47
REMARK   20  A    between atoms: _47  and  _48
REMARK   21  A    between atoms: _47  and  _50
REMARK   22  A    between atoms: _50  and  _51
REMARK   23  A    between atoms: _54  and  _56
REMARK   24  A    between atoms: _56  and  _57
REMARK   25  A    between atoms: _59  and  _61
REMARK   26  A    between atoms: _61  and  _62
REMARK   27  A    between atoms: _65  and  _67
REMARK   28  A    between atoms: _67  and  _68
REMARK   29  A    between atoms: _67  and  _70
REMARK   30  A    between atoms: _70  and  _71
REMARK   31  A    between atoms: _74  and  _76
REMARK   32  A    between atoms: _76  and  _77
REMARK   33  A    between atoms: _76  and  _79
REMARK   34  A    between atoms: _79  and  _80
REMARK   35  A    between atoms: _83  and  _85
REMARK   36  A    between atoms: _85  and  _86
REMARK   37  A    between atoms: _85  and  _88
REMARK   38  A    between atoms: _88  and  _89
REMARK   39  A    between atoms: _92  and  _94
REMARK   40  A    between atoms: _94  and  _95
REMARK   41  A    between atoms: _94  and  _97
REMARK   42  A    between atoms: _100  and  _102
REMARK   43  A    between atoms: _102  and  _103
REMARK   44  A    between atoms: _102  and  _105
REMARK   45  A    between atoms: _105  and  _106
REMARK   46  A    between atoms: _106  and  _107
REMARK   47  A    between atoms: _107  and  _108
REMARK   48  A    between atoms: _108  and  _109
REMARK   49  A    between atoms: _113  and  _115
REMARK   50  A    between atoms: _115  and  _116
REMARK   51  A    between atoms: _115  and  _118
REMARK   52  A    between atoms: _118  and  _119
REMARK   53  A    between atoms: _119  and  _120
REMARK   54  A    between atoms: _122  and  _124
REMARK   55  A    between atoms: _124  and  _125
REMARK   56  A    between atoms: _124  and  _127
REMARK   57  A    between atoms: _127  and  _128
REMARK   58  A    between atoms: _131  and  _133
REMARK   59  A    between atoms: _133  and  _134
REMARK   60  A    between atoms: _136  and  _138
REMARK   61  A    between atoms: _138  and  _139
REMARK   62  A    between atoms: _141  and  _143
REMARK   63  A    between atoms: _143  and  _144
REMARK   64  A    between atoms: _143  and  _146
REMARK   65  A    between atoms: _146  and  _147
REMARK   66  A    between atoms: _150  and  _152
REMARK   67  A    between atoms: _152  and  _153
REMARK   68  A    between atoms: _155  and  _157
REMARK   69  A    between atoms: _157  and  _158
REMARK   70  A    between atoms: _160  and  _162
REMARK   71  A    between atoms: _162  and  _163
REMARK   72  A    between atoms: _162  and  _165
REMARK   73  A    between atoms: _165  and  _166
REMARK   74  A    between atoms: _172  and  _174
REMARK   75  A    between atoms: _174  and  _175
REMARK   76  A    between atoms: _174  and  _177
REMARK   77  A    between atoms: _177  and  _178
REMARK   78  A    between atoms: _181  and  _183
REMARK   79  A    between atoms: _183  and  _184
REMARK   80  A    between atoms: _183  and  _186
REMARK   81  A    between atoms: _189  and  _191
REMARK   82  A    between atoms: _191  and  _192
REMARK   83  A    between atoms: _191  and  _194
REMARK   84  A    between atoms: _194  and  _195
REMARK   85  A    between atoms: _198  and  _200
REMARK   86  A    between atoms: _200  and  _201
REMARK   87  A    between atoms: _200  and  _203
REMARK   88  A    between atoms: _203  and  _204
REMARK   89  A    between atoms: _208  and  _209
REMARK   90  A    between atoms: _214  and  _216
REMARK   91  A    between atoms: _216  and  _217
REMARK   92  A    between atoms: _220  and  _222
REMARK   93  A    between atoms: _222  and  _223
REMARK   94  A    between atoms: _222  and  _225
REMARK   95  A    between atoms: _225  and  _226
REMARK   96  A    between atoms: _231  and  _233
REMARK   97  A    between atoms: _233  and  _234
REMARK   98  A    between atoms: _233  and  _236
REMARK   99  A    between atoms: _236  and  _237
REMARK  100  A    between atoms: _240  and  _242
REMARK  101  A    between atoms: _242  and  _243
REMARK  102  A    between atoms: _242  and  _245
REMARK  103  A    between atoms: _245  and  _246
REMARK  104  A    between atoms: _249  and  _251
REMARK  105  A    between atoms: _251  and  _252
REMARK  106  A    between atoms: _254  and  _256
REMARK  107  A    between atoms: _256  and  _257
REMARK  108  A    between atoms: _256  and  _259
REMARK  109  A    between atoms: _259  and  _260
REMARK  110  A    between atoms: _260  and  _261
REMARK  111  A    between atoms: _261  and  _262
REMARK  112  A    between atoms: _271  and  _273
REMARK  113  A    between atoms: _273  and  _274
REMARK  114  A    between atoms: _273  and  _276
REMARK  115  A    between atoms: _276  and  _277
REMARK  116  A    between atoms: _277  and  _278
REMARK  117  A    between atoms: _278  and  _279
REMARK  118  A    between atoms: _288  and  _290
REMARK  119  A    between atoms: _290  and  _291
REMARK  120  A    between atoms: _290  and  _293
REMARK  121  A    between atoms: _293  and  _294
REMARK  122  A    between atoms: _297  and  _299
REMARK  123  A    between atoms: _299  and  _300
REMARK  124  A    between atoms: _299  and  _302
REMARK  125  A    between atoms: _302  and  _303
REMARK  126  A    between atoms: _306  and  _308
REMARK  127  A    between atoms: _308  and  _309
REMARK  128  A    between atoms: _308  and  _311
REMARK  129  A    between atoms: _311  and  _312
REMARK  130  A    between atoms: _315  and  _317
REMARK  131  A    between atoms: _317  and  _318
REMARK  132  A    between atoms: _317  and  _320
REMARK  133  A    between atoms: _320  and  _321
REMARK  134  A    between atoms: _324  and  _326
REMARK  135  A    between atoms: _326  and  _327
REMARK  136  A    between atoms: _329  and  _331
REMARK  137  A    between atoms: _331  and  _332
REMARK  138  A    between atoms: _335  and  _337
REMARK  139  A    between atoms: _337  and  _338
REMARK  140  A    between atoms: _337  and  _340
REMARK  141  A    between atoms: _340  and  _341
REMARK  142  A    between atoms: _344  and  _346
REMARK  143  A    between atoms: _346  and  _347
REMARK  144  A    between atoms: _346  and  _349
REMARK  145  A    between atoms: _349  and  _350
REMARK  146  A    between atoms: _353  and  _355
REMARK  147  A    between atoms: _355  and  _356
REMARK  148  A    between atoms: _355  and  _358
REMARK  149  A    between atoms: _358  and  _359
REMARK  150  A    between atoms: _362  and  _364
REMARK  151  A    between atoms: _364  and  _365
REMARK  152  A    between atoms: _364  and  _367
REMARK  153  A    between atoms: _370  and  _372
REMARK  154  A    between atoms: _372  and  _373
REMARK  155  A    between atoms: _372  and  _375
REMARK  156  A    between atoms: _375  and  _376
REMARK  157  A    between atoms: _379  and  _381
REMARK  158  A    between atoms: _381  and  _382
REMARK  159  A    between atoms: _384  and  _386
REMARK  160  A    between atoms: _386  and  _387
REMARK  161  A    between atoms: _389  and  _391
REMARK  162  A    between atoms: _391  and  _392
REMARK  163  A    between atoms: _391  and  _394
REMARK  164  A    between atoms: _394  and  _395
REMARK  165  A    between atoms: _398  and  _400
REMARK  166  A    between atoms: _400  and  _401
REMARK  167  A    between atoms: _403  and  _405
REMARK  168  A    between atoms: _405  and  _406
REMARK  169  A    between atoms: _408  and  _410
REMARK  170  A    between atoms: _410  and  _411
REMARK  171  A    between atoms: _410  and  _413
REMARK  172  A    between atoms: _413  and  _414
REMARK  173  A    between atoms: _417  and  _419
REMARK  174  A    between atoms: _419  and  _420
REMARK  175  A    between atoms: _419  and  _422
REMARK  176  A    between atoms: _422  and  _423
REMARK  177  A    between atoms: _427  and  _428
REMARK  178  A    between atoms: _433  and  _435
REMARK  179  A    between atoms: _435  and  _436
REMARK  180  A    between atoms: _439  and  _441
REMARK  181  A    between atoms: _441  and  _442
REMARK  182  A    between atoms: _441  and  _444
REMARK  183  A    between atoms: _444  and  _445
REMARK  184  A    between atoms: _450  and  _452
REMARK  185  A    between atoms: _452  and  _453
REMARK  186  A    between atoms: _452  and  _455
REMARK  187  A    between atoms: _455  and  _456
REMARK  188  A    between atoms: _459  and  _461
REMARK  189  A    between atoms: _461  and  _462
REMARK  190  A    between atoms: _461  and  _464
REMARK  191  A    between atoms: _464  and  _465
REMARK  192  A    between atoms: _468  and  _470
REMARK  193  A    between atoms: _470  and  _471
REMARK  194  A    between atoms: _473  and  _475
REMARK  195  A    between atoms: _475  and  _476
REMARK  196  A    between atoms: _475  and  _478
REMARK  197  A    between atoms: _478  and  _479
REMARK  198  A    between atoms: _479  and  _480
REMARK  199  A    between atoms: _480  and  _481
REMARK  200  A    between atoms: _490  and  _492
REMARK  201  A    between atoms: _492  and  _493
REMARK  202  A    between atoms: _492  and  _495
REMARK  203  A    between atoms: _495  and  _496
REMARK                            x       y       z     vdW  Elec       q    Type
REMARK                         _______ _______ _______ _____ _____    ______ ____
ROOT
ATOM      1  O   HOH     1      20.378  32.399  23.753  0.00  0.00    +0.000 OA
ENDROOT
TORSDOF 0
REMARK  Name = ../refined-set-2016/2idw/2idw_pocket.pdb
REMARK  203 active torsions:
REMARK  status: ('A' for Active; 'I' for Inactive)
REMARK    1  A    between atoms: _1  and  _3
REMARK    2  A    between atoms: _3  and  _4
REMARK    3  A    between atoms: _3  and  _6
REMARK    4  A    between atoms: _6  and  _7
REMARK    5  A    between atoms: _7  and  _8
REMARK    6  A    between atoms: _8  and  _9
REMARK    7  A    between atoms: _18  and  _20
REMARK    8  A    between atoms: _20  and  _21
REMARK    9  A    between atoms: _20  and  _23
REMARK   10  A    between atoms: _23  and  _24
REMARK   11  A    between atoms: _27  and  _29
REMARK   12  A    between atoms: _29  and  _30
REMARK   13  A    between atoms: _29  and  _32
REMARK   14  A    between atoms: _32  and  _33
REMARK   15  A    between atoms: _36  and  _38
REMARK   16  A    between atoms: _38  and  _39
REMARK   17  A    between atoms: _38  and  _41
REMARK   18  A    between atoms: _41  and  _42
REMARK   19  A    between atoms: _45  and  _47
REMARK   20  A    between atoms: _47  and  _48
REMARK   21  A    between atoms: _47  and  _50
REMARK   22  A    between atoms: _50  and  _51
REMARK   23  A    between atoms: _54  and  _56
REMARK   24  A    between atoms: _56  and  _57
REMARK   25  A    between atoms: _59  and  _61
REMARK   26  A    between atoms: _61  and  _62
REMARK   27  A    between atoms: _65  and  _67
REMARK   28  A    between atoms: _67  and  _68
REMARK   29  A    between atoms: _67  and  _70
REMARK   30  A    between atoms: _70  and  _71
REMARK   31  A    between atoms: _74  and  _76
REMARK   32  A    between atoms: _76  and  _77
REMARK   33  A    between atoms: _76  and  _79
REMARK   34  A    between atoms: _79  and  _80
REMARK   35  A    between atoms: _83  and  _85
REMARK   36  A    between atoms: _85  and  _86
REMARK   37  A    between atoms: _85  and  _88
REMARK   38  A    between atoms: _88  and  _89
REMARK   39  A    between atoms: _92  and  _94
REMARK   40  A    between atoms: _94  and  _95
REMARK   41  A    between atoms: _94  and  _97
REMARK   42  A    between atoms: _100  and  _102
REMARK   43  A    between atoms: _102  and  _103
REMARK   44  A    between atoms: _102  and  _105
REMARK   45  A    between atoms: _105  and  _106
REMARK   46  A    between atoms: _106  and  _107
REMARK   47  A    between atoms: _107  and  _108
REMARK   48  A    between atoms: _108  and  _109
REMARK   49  A    between atoms: _113  and  _115
REMARK   50  A    between atoms: _115  and  _116
REMARK   51  A    between atoms: _115  and  _118
REMARK   52  A    between atoms: _118  and  _119
REMARK   53  A    between atoms: _119  and  _120
REMARK   54  A    between atoms: _122  and  _124
REMARK   55  A    between atoms: _124  and  _125
REMARK   56  A    between atoms: _124  and  _127
REMARK   57  A    between atoms: _127  and  _128
REMARK   58  A    between atoms: _131  and  _133
REMARK   59  A    between atoms: _133  and  _134
REMARK   60  A    between atoms: _136  and  _138
REMARK   61  A    between atoms: _138  and  _139
REMARK   62  A    between atoms: _141  and  _143
REMARK   63  A    between atoms: _143  and  _144
REMARK   64  A    between atoms: _143  and  _146
REMARK   65  A    between atoms: _146  and  _147
REMARK   66  A    between atoms: _150  and  _152
REMARK   67  A    between atoms: _152  and  _153
REMARK   68  A    between atoms: _155  and  _157
REMARK   69  A    between atoms: _157  and  _158
REMARK   70  A    between atoms: _160  and  _162
REMARK   71  A    between atoms: _162  and  _163
REMARK   72  A    between atoms: _162  and  _165
REMARK   73  A    between atoms: _165  and  _166
REMARK   74  A    between atoms: _172  and  _174
REMARK   75  A    between atoms: _174  and  _175
REMARK   76  A    between atoms: _174  and  _177
REMARK   77  A    between atoms: _177  and  _178
REMARK   78  A    between atoms: _181  and  _183
REMARK   79  A    between atoms: _183  and  _184
REMARK   80  A    between atoms: _183  and  _186
REMARK   81  A    between atoms: _189  and  _191
REMARK   82  A    between atoms: _191  and  _192
REMARK   83  A    between atoms: _191  and  _194
REMARK   84  A    between atoms: _194  and  _195
REMARK   85  A    between atoms: _198  and  _200
REMARK   86  A    between atoms: _200  and  _201
REMARK   87  A    between atoms: _200  and  _203
REMARK   88  A    between atoms: _203  and  _204
REMARK   89  A    between atoms: _208  and  _209
REMARK   90  A    between atoms: _214  and  _216
REMARK   91  A    between atoms: _216  and  _217
REMARK   92  A    between atoms: _220  and  _222
REMARK   93  A    between atoms: _222  and  _223
REMARK   94  A    between atoms: _222  and  _225
REMARK   95  A    between atoms: _225  and  _226
REMARK   96  A    between atoms: _231  and  _233
REMARK   97  A    between atoms: _233  and  _234
REMARK   98  A    between atoms: _233  and  _236
REMARK   99  A    between atoms: _236  and  _237
REMARK  100  A    between atoms: _240  and  _242
REMARK  101  A    between atoms: _242  and  _243
REMARK  102  A    between atoms: _242  and  _245
REMARK  103  A    between atoms: _245  and  _246
REMARK  104  A    between atoms: _249  and  _251
REMARK  105  A    between atoms: _251  and  _252
REMARK  106  A    between atoms: _254  and  _256
REMARK  107  A    between atoms: _256  and  _257
REMARK  108  A    between atoms: _256  and  _259
REMARK  109  A    between atoms: _259  and  _260
REMARK  110  A    between atoms: _260  and  _261
REMARK  111  A    between atoms: _261  and  _262
REMARK  112  A    between atoms: _271  and  _273
REMARK  113  A    between atoms: _273  and  _274
REMARK  114  A    between atoms: _273  and  _276
REMARK  115  A    between atoms: _276  and  _277
REMARK  116  A    between atoms: _277  and  _278
REMARK  117  A    between atoms: _278  and  _279
REMARK  118  A    between atoms: _288  and  _290
REMARK  119  A    between atoms: _290  and  _291
REMARK  120  A    between atoms: _290  and  _293
REMARK  121  A    between atoms: _293  and  _294
REMARK  122  A    between atoms: _297  and  _299
REMARK  123  A    between atoms: _299  and  _300
REMARK  124  A    between atoms: _299  and  _302
REMARK  125  A    between atoms: _302  and  _303
REMARK  126  A    between atoms: _306  and  _308
REMARK  127  A    between atoms: _308  and  _309
REMARK  128  A    between atoms: _308  and  _311
REMARK  129  A    between atoms: _311  and  _312
REMARK  130  A    between atoms: _315  and  _317
REMARK  131  A    between atoms: _317  and  _318
REMARK  132  A    between atoms: _317  and  _320
REMARK  133  A    between atoms: _320  and  _321
REMARK  134  A    between atoms: _324  and  _326
REMARK  135  A    between atoms: _326  and  _327
REMARK  136  A    between atoms: _329  and  _331
REMARK  137  A    between atoms: _331  and  _332
REMARK  138  A    between atoms: _335  and  _337
REMARK  139  A    between atoms: _337  and  _338
REMARK  140  A    between atoms: _337  and  _340
REMARK  141  A    between atoms: _340  and  _341
REMARK  142  A    between atoms: _344  and  _346
REMARK  143  A    between atoms: _346  and  _347
REMARK  144  A    between atoms: _346  and  _349
REMARK  145  A    between atoms: _349  and  _350
REMARK  146  A    between atoms: _353  and  _355
REMARK  147  A    between atoms: _355  and  _356
REMARK  148  A    between atoms: _355  and  _358
REMARK  149  A    between atoms: _358  and  _359
REMARK  150  A    between atoms: _362  and  _364
REMARK  151  A    between atoms: _364  and  _365
REMARK  152  A    between atoms: _364  and  _367
REMARK  153  A    between atoms: _370  and  _372
REMARK  154  A    between atoms: _372  and  _373
REMARK  155  A    between atoms: _372  and  _375
REMARK  156  A    between atoms: _375  and  _376
REMARK  157  A    between atoms: _379  and  _381
REMARK  158  A    between atoms: _381  and  _382
REMARK  159  A    between atoms: _384  and  _386
REMARK  160  A    between atoms: _386  and  _387
REMARK  161  A    between atoms: _389  and  _391
REMARK  162  A    between atoms: _391  and  _392
REMARK  163  A    between atoms: _391  and  _394
REMARK  164  A    between atoms: _394  and  _395
REMARK  165  A    between atoms: _398  and  _400
REMARK  166  A    between atoms: _400  and  _401
REMARK  167  A    between atoms: _403  and  _405
REMARK  168  A    between atoms: _405  and  _406
REMARK  169  A    between atoms: _408  and  _410
REMARK  170  A    between atoms: _410  and  _411
REMARK  171  A    between atoms: _410  and  _413
REMARK  172  A    between atoms: _413  and  _414
REMARK  173  A    between atoms: _417  and  _419
REMARK  174  A    between atoms: _419  and  _420
REMARK  175  A    between atoms: _419  and  _422
REMARK  176  A    between atoms: _422  and  _423
REMARK  177  A    between atoms: _427  and  _428
REMARK  178  A    between atoms: _433  and  _435
REMARK  179  A    between atoms: _435  and  _436
REMARK  180  A    between atoms: _439  and  _441
REMARK  181  A    between atoms: _441  and  _442
REMARK  182  A    between atoms: _441  and  _444
REMARK  183  A    between atoms: _444  and  _445
REMARK  184  A    between atoms: _450  and  _452
REMARK  185  A    between atoms: _452  and  _453
REMARK  186  A    between atoms: _452  and  _455
REMARK  187  A    between atoms: _455  and  _456
REMARK  188  A    between atoms: _459  and  _461
REMARK  189  A    between atoms: _461  and  _462
REMARK  190  A    between atoms: _461  and  _464
REMARK  191  A    between atoms: _464  and  _465
REMARK  192  A    between atoms: _468  and  _470
REMARK  193  A    between atoms: _470  and  _471
REMARK  194  A    between atoms: _473  and  _475
REMARK  195  A    between atoms: _475  and  _476
REMARK  196  A    between atoms: _475  and  _478
REMARK  197  A    between atoms: _478  and  _479
REMARK  198  A    between atoms: _479  and  _480
REMARK  199  A    between atoms: _480  and  _481
REMARK  200  A    between atoms: _490  and  _492
REMARK  201  A    between atoms: _492  and  _493
REMARK  202  A    between atoms: _492  and  _495
REMARK  203  A    between atoms: _495  and  _496
REMARK                            x       y       z     vdW  Elec       q    Type
REMARK                         _______ _______ _______ _____ _____    ______ ____
ROOT
ATOM      1  O   HOH     1      20.847  34.202  21.661  0.00  0.00    +0.000 OA
ENDROOT
TORSDOF 0
REMARK  Name = ../refined-set-2016/2idw/2idw_pocket.pdb
REMARK  203 active torsions:
REMARK  status: ('A' for Active; 'I' for Inactive)
REMARK    1  A    between atoms: _1  and  _3
REMARK    2  A    between atoms: _3  and  _4
REMARK    3  A    between atoms: _3  and  _6
REMARK    4  A    between atoms: _6  and  _7
REMARK    5  A    between atoms: _7  and  _8
REMARK    6  A    between atoms: _8  and  _9
REMARK    7  A    between atoms: _18  and  _20
REMARK    8  A    between atoms: _20  and  _21
REMARK    9  A    between atoms: _20  and  _23
REMARK   10  A    between atoms: _23  and  _24
REMARK   11  A    between atoms: _27  and  _29
REMARK   12  A    between atoms: _29  and  _30
REMARK   13  A    between atoms: _29  and  _32
REMARK   14  A    between atoms: _32  and  _33
REMARK   15  A    between atoms: _36  and  _38
REMARK   16  A    between atoms: _38  and  _39
REMARK   17  A    between atoms: _38  and  _41
REMARK   18  A    between atoms: _41  and  _42
REMARK   19  A    between atoms: _45  and  _47
REMARK   20  A    between atoms: _47  and  _48
REMARK   21  A    between atoms: _47  and  _50
REMARK   22  A    between atoms: _50  and  _51
REMARK   23  A    between atoms: _54  and  _56
REMARK   24  A    between atoms: _56  and  _57
REMARK   25  A    between atoms: _59  and  _61
REMARK   26  A    between atoms: _61  and  _62
REMARK   27  A    between atoms: _65  and  _67
REMARK   28  A    between atoms: _67  and  _68
REMARK   29  A    between atoms: _67  and  _70
REMARK   30  A    between atoms: _70  and  _71
REMARK   31  A    between atoms: _74  and  _76
REMARK   32  A    between atoms: _76  and  _77
REMARK   33  A    between atoms: _76  and  _79
REMARK   34  A    between atoms: _79  and  _80
REMARK   35  A    between atoms: _83  and  _85
REMARK   36  A    between atoms: _85  and  _86
REMARK   37  A    between atoms: _85  and  _88
REMARK   38  A    between atoms: _88  and  _89
REMARK   39  A    between atoms: _92  and  _94
REMARK   40  A    between atoms: _94  and  _95
REMARK   41  A    between atoms: _94  and  _97
REMARK   42  A    between atoms: _100  and  _102
REMARK   43  A    between atoms: _102  and  _103
REMARK   44  A    between atoms: _102  and  _105
REMARK   45  A    between atoms: _105  and  _106
REMARK   46  A    between atoms: _106  and  _107
REMARK   47  A    between atoms: _107  and  _108
REMARK   48  A    between atoms: _108  and  _109
REMARK   49  A    between atoms: _113  and  _115
REMARK   50  A    between atoms: _115  and  _116
REMARK   51  A    between atoms: _115  and  _118
REMARK   52  A    between atoms: _118  and  _119
REMARK   53  A    between atoms: _119  and  _120
REMARK   54  A    between atoms: _122  and  _124
REMARK   55  A    between atoms: _124  and  _125
REMARK   56  A    between atoms: _124  and  _127
REMARK   57  A    between atoms: _127  and  _128
REMARK   58  A    between atoms: _131  and  _133
REMARK   59  A    between atoms: _133  and  _134
REMARK   60  A    between atoms: _136  and  _138
REMARK   61  A    between atoms: _138  and  _139
REMARK   62  A    between atoms: _141  and  _143
REMARK   63  A    between atoms: _143  and  _144
REMARK   64  A    between atoms: _143  and  _146
REMARK   65  A    between atoms: _146  and  _147
REMARK   66  A    between atoms: _150  and  _152
REMARK   67  A    between atoms: _152  and  _153
REMARK   68  A    between atoms: _155  and  _157
REMARK   69  A    between atoms: _157  and  _158
REMARK   70  A    between atoms: _160  and  _162
REMARK   71  A    between atoms: _162  and  _163
REMARK   72  A    between atoms: _162  and  _165
REMARK   73  A    between atoms: _165  and  _166
REMARK   74  A    between atoms: _172  and  _174
REMARK   75  A    between atoms: _174  and  _175
REMARK   76  A    between atoms: _174  and  _177
REMARK   77  A    between atoms: _177  and  _178
REMARK   78  A    between atoms: _181  and  _183
REMARK   79  A    between atoms: _183  and  _184
REMARK   80  A    between atoms: _183  and  _186
REMARK   81  A    between atoms: _189  and  _191
REMARK   82  A    between atoms: _191  and  _192
REMARK   83  A    between atoms: _191  and  _194
REMARK   84  A    between atoms: _194  and  _195
REMARK   85  A    between atoms: _198  and  _200
REMARK   86  A    between atoms: _200  and  _201
REMARK   87  A    between atoms: _200  and  _203
REMARK   88  A    between atoms: _203  and  _204
REMARK   89  A    between atoms: _208  and  _209
REMARK   90  A    between atoms: _214  and  _216
REMARK   91  A    between atoms: _216  and  _217
REMARK   92  A    between atoms: _220  and  _222
REMARK   93  A    between atoms: _222  and  _223
REMARK   94  A    between atoms: _222  and  _225
REMARK   95  A    between atoms: _225  and  _226
REMARK   96  A    between atoms: _231  and  _233
REMARK   97  A    between atoms: _233  and  _234
REMARK   98  A    between atoms: _233  and  _236
REMARK   99  A    between atoms: _236  and  _237
REMARK  100  A    between atoms: _240  and  _242
REMARK  101  A    between atoms: _242  and  _243
REMARK  102  A    between atoms: _242  and  _245
REMARK  103  A    between atoms: _245  and  _246
REMARK  104  A    between atoms: _249  and  _251
REMARK  105  A    between atoms: _251  and  _252
REMARK  106  A    between atoms: _254  and  _256
REMARK  107  A    between atoms: _256  and  _257
REMARK  108  A    between atoms: _256  and  _259
REMARK  109  A    between atoms: _259  and  _260
REMARK  110  A    between atoms: _260  and  _261
REMARK  111  A    between atoms: _261  and  _262
REMARK  112  A    between atoms: _271  and  _273
REMARK  113  A    between atoms: _273  and  _274
REMARK  114  A    between atoms: _273  and  _276
REMARK  115  A    between atoms: _276  and  _277
REMARK  116  A    between atoms: _277  and  _278
REMARK  117  A    between atoms: _278  and  _279
REMARK  118  A    between atoms: _288  and  _290
REMARK  119  A    between atoms: _290  and  _291
REMARK  120  A    between atoms: _290  and  _293
REMARK  121  A    between atoms: _293  and  _294
REMARK  122  A    between atoms: _297  and  _299
REMARK  123  A    between atoms: _299  and  _300
REMARK  124  A    between atoms: _299  and  _302
REMARK  125  A    between atoms: _302  and  _303
REMARK  126  A    between atoms: _306  and  _308
REMARK  127  A    between atoms: _308  and  _309
REMARK  128  A    between atoms: _308  and  _311
REMARK  129  A    between atoms: _311  and  _312
REMARK  130  A    between atoms: _315  and  _317
REMARK  131  A    between atoms: _317  and  _318
REMARK  132  A    between atoms: _317  and  _320
REMARK  133  A    between atoms: _320  and  _321
REMARK  134  A    between atoms: _324  and  _326
REMARK  135  A    between atoms: _326  and  _327
REMARK  136  A    between atoms: _329  and  _331
REMARK  137  A    between atoms: _331  and  _332
REMARK  138  A    between atoms: _335  and  _337
REMARK  139  A    between atoms: _337  and  _338
REMARK  140  A    between atoms: _337  and  _340
REMARK  141  A    between atoms: _340  and  _341
REMARK  142  A    between atoms: _344  and  _346
REMARK  143  A    between atoms: _346  and  _347
REMARK  144  A    between atoms: _346  and  _349
REMARK  145  A    between atoms: _349  and  _350
REMARK  146  A    between atoms: _353  and  _355
REMARK  147  A    between atoms: _355  and  _356
REMARK  148  A    between atoms: _355  and  _358
REMARK  149  A    between atoms: _358  and  _359
REMARK  150  A    between atoms: _362  and  _364
REMARK  151  A    between atoms: _364  and  _365
REMARK  152  A    between atoms: _364  and  _367
REMARK  153  A    between atoms: _370  and  _372
REMARK  154  A    between atoms: _372  and  _373
REMARK  155  A    between atoms: _372  and  _375
REMARK  156  A    between atoms: _375  and  _376
REMARK  157  A    between atoms: _379  and  _381
REMARK  158  A    between atoms: _381  and  _382
REMARK  159  A    between atoms: _384  and  _386
REMARK  160  A    between atoms: _386  and  _387
REMARK  161  A    between atoms: _389  and  _391
REMARK  162  A    between atoms: _391  and  _392
REMARK  163  A    between atoms: _391  and  _394
REMARK  164  A    between atoms: _394  and  _395
REMARK  165  A    between atoms: _398  and  _400
REMARK  166  A    between atoms: _400  and  _401
REMARK  167  A    between atoms: _403  and  _405
REMARK  168  A    between atoms: _405  and  _406
REMARK  169  A    between atoms: _408  and  _410
REMARK  170  A    between atoms: _410  and  _411
REMARK  171  A    between atoms: _410  and  _413
REMARK  172  A    between atoms: _413  and  _414
REMARK  173  A    between atoms: _417  and  _419
REMARK  174  A    between atoms: _419  and  _420
REMARK  175  A    between atoms: _419  and  _422
REMARK  176  A    between atoms: _422  and  _423
REMARK  177  A    between atoms: _427  and  _428
REMARK  178  A    between atoms: _433  and  _435
REMARK  179  A    between atoms: _435  and  _436
REMARK  180  A    between atoms: _439  and  _441
REMARK  181  A    between atoms: _441  and  _442
REMARK  182  A    between atoms: _441  and  _444
REMARK  183  A    between atoms: _444  and  _445
REMARK  184  A    between atoms: _450  and  _452
REMARK  185  A    between atoms: _452  and  _453
REMARK  186  A    between atoms: _452  and  _455
REMARK  187  A    between atoms: _455  and  _456
REMARK  188  A    between atoms: _459  and  _461
REMARK  189  A    between atoms: _461  and  _462
REMARK  190  A    between atoms: _461  and  _464
REMARK  191  A    between atoms: _464  and  _465
REMARK  192  A    between atoms: _468  and  _470
REMARK  193  A    between atoms: _470  and  _471
REMARK  194  A    between atoms: _473  and  _475
REMARK  195  A    between atoms: _475  and  _476
REMARK  196  A    between atoms: _475  and  _478
REMARK  197  A    between atoms: _478  and  _479
REMARK  198  A    between atoms: _479  and  _480
REMARK  199  A    between atoms: _480  and  _481
REMARK  200  A    between atoms: _490  and  _492
REMARK  201  A    between atoms: _492  and  _493
REMARK  202  A    between atoms: _492  and  _495
REMARK  203  A    between atoms: _495  and  _496
REMARK                            x       y       z     vdW  Elec       q    Type
REMARK                         _______ _______ _______ _____ _____    ______ ____
ROOT
ATOM      1  O   HOH     1       9.320  34.888  21.370  0.00  0.00    +0.000 OA
ENDROOT
TORSDOF 0
REMARK  Name = ../refined-set-2016/2idw/2idw_pocket.pdb
REMARK  203 active torsions:
REMARK  status: ('A' for Active; 'I' for Inactive)
REMARK    1  A    between atoms: _1  and  _3
REMARK    2  A    between atoms: _3  and  _4
REMARK    3  A    between atoms: _3  and  _6
REMARK    4  A    between atoms: _6  and  _7
REMARK    5  A    between atoms: _7  and  _8
REMARK    6  A    between atoms: _8  and  _9
REMARK    7  A    between atoms: _18  and  _20
REMARK    8  A    between atoms: _20  and  _21
REMARK    9  A    between atoms: _20  and  _23
REMARK   10  A    between atoms: _23  and  _24
REMARK   11  A    between atoms: _27  and  _29
REMARK   12  A    between atoms: _29  and  _30
REMARK   13  A    between atoms: _29  and  _32
REMARK   14  A    between atoms: _32  and  _33
REMARK   15  A    between atoms: _36  and  _38
REMARK   16  A    between atoms: _38  and  _39
REMARK   17  A    between atoms: _38  and  _41
REMARK   18  A    between atoms: _41  and  _42
REMARK   19  A    between atoms: _45  and  _47
REMARK   20  A    between atoms: _47  and  _48
REMARK   21  A    between atoms: _47  and  _50
REMARK   22  A    between atoms: _50  and  _51
REMARK   23  A    between atoms: _54  and  _56
REMARK   24  A    between atoms: _56  and  _57
REMARK   25  A    between atoms: _59  and  _61
REMARK   26  A    between atoms: _61  and  _62
REMARK   27  A    between atoms: _65  and  _67
REMARK   28  A    between atoms: _67  and  _68
REMARK   29  A    between atoms: _67  and  _70
REMARK   30  A    between atoms: _70  and  _71
REMARK   31  A    between atoms: _74  and  _76
REMARK   32  A    between atoms: _76  and  _77
REMARK   33  A    between atoms: _76  and  _79
REMARK   34  A    between atoms: _79  and  _80
REMARK   35  A    between atoms: _83  and  _85
REMARK   36  A    between atoms: _85  and  _86
REMARK   37  A    between atoms: _85  and  _88
REMARK   38  A    between atoms: _88  and  _89
REMARK   39  A    between atoms: _92  and  _94
REMARK   40  A    between atoms: _94  and  _95
REMARK   41  A    between atoms: _94  and  _97
REMARK   42  A    between atoms: _100  and  _102
REMARK   43  A    between atoms: _102  and  _103
REMARK   44  A    between atoms: _102  and  _105
REMARK   45  A    between atoms: _105  and  _106
REMARK   46  A    between atoms: _106  and  _107
REMARK   47  A    between atoms: _107  and  _108
REMARK   48  A    between atoms: _108  and  _109
REMARK   49  A    between atoms: _113  and  _115
REMARK   50  A    between atoms: _115  and  _116
REMARK   51  A    between atoms: _115  and  _118
REMARK   52  A    between atoms: _118  and  _119
REMARK   53  A    between atoms: _119  and  _120
REMARK   54  A    between atoms: _122  and  _124
REMARK   55  A    between atoms: _124  and  _125
REMARK   56  A    between atoms: _124  and  _127
REMARK   57  A    between atoms: _127  and  _128
REMARK   58  A    between atoms: _131  and  _133
REMARK   59  A    between atoms: _133  and  _134
REMARK   60  A    between atoms: _136  and  _138
REMARK   61  A    between atoms: _138  and  _139
REMARK   62  A    between atoms: _141  and  _143
REMARK   63  A    between atoms: _143  and  _144
REMARK   64  A    between atoms: _143  and  _146
REMARK   65  A    between atoms: _146  and  _147
REMARK   66  A    between atoms: _150  and  _152
REMARK   67  A    between atoms: _152  and  _153
REMARK   68  A    between atoms: _155  and  _157
REMARK   69  A    between atoms: _157  and  _158
REMARK   70  A    between atoms: _160  and  _162
REMARK   71  A    between atoms: _162  and  _163
REMARK   72  A    between atoms: _162  and  _165
REMARK   73  A    between atoms: _165  and  _166
REMARK   74  A    between atoms: _172  and  _174
REMARK   75  A    between atoms: _174  and  _175
REMARK   76  A    between atoms: _174  and  _177
REMARK   77  A    between atoms: _177  and  _178
REMARK   78  A    between atoms: _181  and  _183
REMARK   79  A    between atoms: _183  and  _184
REMARK   80  A    between atoms: _183  and  _186
REMARK   81  A    between atoms: _189  and  _191
REMARK   82  A    between atoms: _191  and  _192
REMARK   83  A    between atoms: _191  and  _194
REMARK   84  A    between atoms: _194  and  _195
REMARK   85  A    between atoms: _198  and  _200
REMARK   86  A    between atoms: _200  and  _201
REMARK   87  A    between atoms: _200  and  _203
REMARK   88  A    between atoms: _203  and  _204
REMARK   89  A    between atoms: _208  and  _209
REMARK   90  A    between atoms: _214  and  _216
REMARK   91  A    between atoms: _216  and  _217
REMARK   92  A    between atoms: _220  and  _222
REMARK   93  A    between atoms: _222  and  _223
REMARK   94  A    between atoms: _222  and  _225
REMARK   95  A    between atoms: _225  and  _226
REMARK   96  A    between atoms: _231  and  _233
REMARK   97  A    between atoms: _233  and  _234
REMARK   98  A    between atoms: _233  and  _236
REMARK   99  A    between atoms: _236  and  _237
REMARK  100  A    between atoms: _240  and  _242
REMARK  101  A    between atoms: _242  and  _243
REMARK  102  A    between atoms: _242  and  _245
REMARK  103  A    between atoms: _245  and  _246
REMARK  104  A    between atoms: _249  and  _251
REMARK  105  A    between atoms: _251  and  _252
REMARK  106  A    between atoms: _254  and  _256
REMARK  107  A    between atoms: _256  and  _257
REMARK  108  A    between atoms: _256  and  _259
REMARK  109  A    between atoms: _259  and  _260
REMARK  110  A    between atoms: _260  and  _261
REMARK  111  A    between atoms: _261  and  _262
REMARK  112  A    between atoms: _271  and  _273
REMARK  113  A    between atoms: _273  and  _274
REMARK  114  A    between atoms: _273  and  _276
REMARK  115  A    between atoms: _276  and  _277
REMARK  116  A    between atoms: _277  and  _278
REMARK  117  A    between atoms: _278  and  _279
REMARK  118  A    between atoms: _288  and  _290
REMARK  119  A    between atoms: _290  and  _291
REMARK  120  A    between atoms: _290  and  _293
REMARK  121  A    between atoms: _293  and  _294
REMARK  122  A    between atoms: _297  and  _299
REMARK  123  A    between atoms: _299  and  _300
REMARK  124  A    between atoms: _299  and  _302
REMARK  125  A    between atoms: _302  and  _303
REMARK  126  A    between atoms: _306  and  _308
REMARK  127  A    between atoms: _308  and  _309
REMARK  128  A    between atoms: _308  and  _311
REMARK  129  A    between atoms: _311  and  _312
REMARK  130  A    between atoms: _315  and  _317
REMARK  131  A    between atoms: _317  and  _318
REMARK  132  A    between atoms: _317  and  _320
REMARK  133  A    between atoms: _320  and  _321
REMARK  134  A    between atoms: _324  and  _326
REMARK  135  A    between atoms: _326  and  _327
REMARK  136  A    between atoms: _329  and  _331
REMARK  137  A    between atoms: _331  and  _332
REMARK  138  A    between atoms: _335  and  _337
REMARK  139  A    between atoms: _337  and  _338
REMARK  140  A    between atoms: _337  and  _340
REMARK  141  A    between atoms: _340  and  _341
REMARK  142  A    between atoms: _344  and  _346
REMARK  143  A    between atoms: _346  and  _347
REMARK  144  A    between atoms: _346  and  _349
REMARK  145  A    between atoms: _349  and  _350
REMARK  146  A    between atoms: _353  and  _355
REMARK  147  A    between atoms: _355  and  _356
REMARK  148  A    between atoms: _355  and  _358
REMARK  149  A    between atoms: _358  and  _359
REMARK  150  A    between atoms: _362  and  _364
REMARK  151  A    between atoms: _364  and  _365
REMARK  152  A    between atoms: _364  and  _367
REMARK  153  A    between atoms: _370  and  _372
REMARK  154  A    between atoms: _372  and  _373
REMARK  155  A    between atoms: _372  and  _375
REMARK  156  A    between atoms: _375  and  _376
REMARK  157  A    between atoms: _379  and  _381
REMARK  158  A    between atoms: _381  and  _382
REMARK  159  A    between atoms: _384  and  _386
REMARK  160  A    between atoms: _386  and  _387
REMARK  161  A    between atoms: _389  and  _391
REMARK  162  A    between atoms: _391  and  _392
REMARK  163  A    between atoms: _391  and  _394
REMARK  164  A    between atoms: _394  and  _395
REMARK  165  A    between atoms: _398  and  _400
REMARK  166  A    between atoms: _400  and  _401
REMARK  167  A    between atoms: _403  and  _405
REMARK  168  A    between atoms: _405  and  _406
REMARK  169  A    between atoms: _408  and  _410
REMARK  170  A    between atoms: _410  and  _411
REMARK  171  A    between atoms: _410  and  _413
REMARK  172  A    between atoms: _413  and  _414
REMARK  173  A    between atoms: _417  and  _419
REMARK  174  A    between atoms: _419  and  _420
REMARK  175  A    between atoms: _419  and  _422
REMARK  176  A    between atoms: _422  and  _423
REMARK  177  A    between atoms: _427  and  _428
REMARK  178  A    between atoms: _433  and  _435
REMARK  179  A    between atoms: _435  and  _436
REMARK  180  A    between atoms: _439  and  _441
REMARK  181  A    between atoms: _441  and  _442
REMARK  182  A    between atoms: _441  and  _444
REMARK  183  A    between atoms: _444  and  _445
REMARK  184  A    between atoms: _450  and  _452
REMARK  185  A    between atoms: _452  and  _453
REMARK  186  A    between atoms: _452  and  _455
REMARK  187  A    between atoms: _455  and  _456
REMARK  188  A    between atoms: _459  and  _461
REMARK  189  A    between atoms: _461  and  _462
REMARK  190  A    between atoms: _461  and  _464
REMARK  191  A    between atoms: _464  and  _465
REMARK  192  A    between atoms: _468  and  _470
REMARK  193  A    between atoms: _470  and  _471
REMARK  194  A    between atoms: _473  and  _475
REMARK  195  A    between atoms: _475  and  _476
REMARK  196  A    between atoms: _475  and  _478
REMARK  197  A    between atoms: _478  and  _479
REMARK  198  A    between atoms: _479  and  _480
REMARK  199  A    between atoms: _480  and  _481
REMARK  200  A    between atoms: _490  and  _492
REMARK  201  A    between atoms: _492  and  _493
REMARK  202  A    between atoms: _492  and  _495
REMARK  203  A    between atoms: _495  and  _496
REMARK                            x       y       z     vdW  Elec       q    Type
REMARK                         _______ _______ _______ _____ _____    ______ ____
ROOT
ATOM      1  O   HOH     1      17.742  40.061  16.055  0.00  0.00    +0.000 OA
ENDROOT
TORSDOF 0
REMARK  Name = ../refined-set-2016/2idw/2idw_pocket.pdb
REMARK  203 active torsions:
REMARK  status: ('A' for Active; 'I' for Inactive)
REMARK    1  A    between atoms: _1  and  _3
REMARK    2  A    between atoms: _3  and  _4
REMARK    3  A    between atoms: _3  and  _6
REMARK    4  A    between atoms: _6  and  _7
REMARK    5  A    between atoms: _7  and  _8
REMARK    6  A    between atoms: _8  and  _9
REMARK    7  A    between atoms: _18  and  _20
REMARK    8  A    between atoms: _20  and  _21
REMARK    9  A    between atoms: _20  and  _23
REMARK   10  A    between atoms: _23  and  _24
REMARK   11  A    between atoms: _27  and  _29
REMARK   12  A    between atoms: _29  and  _30
REMARK   13  A    between atoms: _29  and  _32
REMARK   14  A    between atoms: _32  and  _33
REMARK   15  A    between atoms: _36  and  _38
REMARK   16  A    between atoms: _38  and  _39
REMARK   17  A    between atoms: _38  and  _41
REMARK   18  A    between atoms: _41  and  _42
REMARK   19  A    between atoms: _45  and  _47
REMARK   20  A    between atoms: _47  and  _48
REMARK   21  A    between atoms: _47  and  _50
REMARK   22  A    between atoms: _50  and  _51
REMARK   23  A    between atoms: _54  and  _56
REMARK   24  A    between atoms: _56  and  _57
REMARK   25  A    between atoms: _59  and  _61
REMARK   26  A    between atoms: _61  and  _62
REMARK   27  A    between atoms: _65  and  _67
REMARK   28  A    between atoms: _67  and  _68
REMARK   29  A    between atoms: _67  and  _70
REMARK   30  A    between atoms: _70  and  _71
REMARK   31  A    between atoms: _74  and  _76
REMARK   32  A    between atoms: _76  and  _77
REMARK   33  A    between atoms: _76  and  _79
REMARK   34  A    between atoms: _79  and  _80
REMARK   35  A    between atoms: _83  and  _85
REMARK   36  A    between atoms: _85  and  _86
REMARK   37  A    between atoms: _85  and  _88
REMARK   38  A    between atoms: _88  and  _89
REMARK   39  A    between atoms: _92  and  _94
REMARK   40  A    between atoms: _94  and  _95
REMARK   41  A    between atoms: _94  and  _97
REMARK   42  A    between atoms: _100  and  _102
REMARK   43  A    between atoms: _102  and  _103
REMARK   44  A    between atoms: _102  and  _105
REMARK   45  A    between atoms: _105  and  _106
REMARK   46  A    between atoms: _106  and  _107
REMARK   47  A    between atoms: _107  and  _108
REMARK   48  A    between atoms: _108  and  _109
REMARK   49  A    between atoms: _113  and  _115
REMARK   50  A    between atoms: _115  and  _116
REMARK   51  A    between atoms: _115  and  _118
REMARK   52  A    between atoms: _118  and  _119
REMARK   53  A    between atoms: _119  and  _120
REMARK   54  A    between atoms: _122  and  _124
REMARK   55  A    between atoms: _124  and  _125
REMARK   56  A    between atoms: _124  and  _127
REMARK   57  A    between atoms: _127  and  _128
REMARK   58  A    between atoms: _131  and  _133
REMARK   59  A    between atoms: _133  and  _134
REMARK   60  A    between atoms: _136  and  _138
REMARK   61  A    between atoms: _138  and  _139
REMARK   62  A    between atoms: _141  and  _143
REMARK   63  A    between atoms: _143  and  _144
REMARK   64  A    between atoms: _143  and  _146
REMARK   65  A    between atoms: _146  and  _147
REMARK   66  A    between atoms: _150  and  _152
REMARK   67  A    between atoms: _152  and  _153
REMARK   68  A    between atoms: _155  and  _157
REMARK   69  A    between atoms: _157  and  _158
REMARK   70  A    between atoms: _160  and  _162
REMARK   71  A    between atoms: _162  and  _163
REMARK   72  A    between atoms: _162  and  _165
REMARK   73  A    between atoms: _165  and  _166
REMARK   74  A    between atoms: _172  and  _174
REMARK   75  A    between atoms: _174  and  _175
REMARK   76  A    between atoms: _174  and  _177
REMARK   77  A    between atoms: _177  and  _178
REMARK   78  A    between atoms: _181  and  _183
REMARK   79  A    between atoms: _183  and  _184
REMARK   80  A    between atoms: _183  and  _186
REMARK   81  A    between atoms: _189  and  _191
REMARK   82  A    between atoms: _191  and  _192
REMARK   83  A    between atoms: _191  and  _194
REMARK   84  A    between atoms: _194  and  _195
REMARK   85  A    between atoms: _198  and  _200
REMARK   86  A    between atoms: _200  and  _201
REMARK   87  A    between atoms: _200  and  _203
REMARK   88  A    between atoms: _203  and  _204
REMARK   89  A    between atoms: _208  and  _209
REMARK   90  A    between atoms: _214  and  _216
REMARK   91  A    between atoms: _216  and  _217
REMARK   92  A    between atoms: _220  and  _222
REMARK   93  A    between atoms: _222  and  _223
REMARK   94  A    between atoms: _222  and  _225
REMARK   95  A    between atoms: _225  and  _226
REMARK   96  A    between atoms: _231  and  _233
REMARK   97  A    between atoms: _233  and  _234
REMARK   98  A    between atoms: _233  and  _236
REMARK   99  A    between atoms: _236  and  _237
REMARK  100  A    between atoms: _240  and  _242
REMARK  101  A    between atoms: _242  and  _243
REMARK  102  A    between atoms: _242  and  _245
REMARK  103  A    between atoms: _245  and  _246
REMARK  104  A    between atoms: _249  and  _251
REMARK  105  A    between atoms: _251  and  _252
REMARK  106  A    between atoms: _254  and  _256
REMARK  107  A    between atoms: _256  and  _257
REMARK  108  A    between atoms: _256  and  _259
REMARK  109  A    between atoms: _259  and  _260
REMARK  110  A    between atoms: _260  and  _261
REMARK  111  A    between atoms: _261  and  _262
REMARK  112  A    between atoms: _271  and  _273
REMARK  113  A    between atoms: _273  and  _274
REMARK  114  A    between atoms: _273  and  _276
REMARK  115  A    between atoms: _276  and  _277
REMARK  116  A    between atoms: _277  and  _278
REMARK  117  A    between atoms: _278  and  _279
REMARK  118  A    between atoms: _288  and  _290
REMARK  119  A    between atoms: _290  and  _291
REMARK  120  A    between atoms: _290  and  _293
REMARK  121  A    between atoms: _293  and  _294
REMARK  122  A    between atoms: _297  and  _299
REMARK  123  A    between atoms: _299  and  _300
REMARK  124  A    between atoms: _299  and  _302
REMARK  125  A    between atoms: _302  and  _303
REMARK  126  A    between atoms: _306  and  _308
REMARK  127  A    between atoms: _308  and  _309
REMARK  128  A    between atoms: _308  and  _311
REMARK  129  A    between atoms: _311  and  _312
REMARK  130  A    between atoms: _315  and  _317
REMARK  131  A    between atoms: _317  and  _318
REMARK  132  A    between atoms: _317  and  _320
REMARK  133  A    between atoms: _320  and  _321
REMARK  134  A    between atoms: _324  and  _326
REMARK  135  A    between atoms: _326  and  _327
REMARK  136  A    between atoms: _329  and  _331
REMARK  137  A    between atoms: _331  and  _332
REMARK  138  A    between atoms: _335  and  _337
REMARK  139  A    between atoms: _337  and  _338
REMARK  140  A    between atoms: _337  and  _340
REMARK  141  A    between atoms: _340  and  _341
REMARK  142  A    between atoms: _344  and  _346
REMARK  143  A    between atoms: _346  and  _347
REMARK  144  A    between atoms: _346  and  _349
REMARK  145  A    between atoms: _349  and  _350
REMARK  146  A    between atoms: _353  and  _355
REMARK  147  A    between atoms: _355  and  _356
REMARK  148  A    between atoms: _355  and  _358
REMARK  149  A    between atoms: _358  and  _359
REMARK  150  A    between atoms: _362  and  _364
REMARK  151  A    between atoms: _364  and  _365
REMARK  152  A    between atoms: _364  and  _367
REMARK  153  A    between atoms: _370  and  _372
REMARK  154  A    between atoms: _372  and  _373
REMARK  155  A    between atoms: _372  and  _375
REMARK  156  A    between atoms: _375  and  _376
REMARK  157  A    between atoms: _379  and  _381
REMARK  158  A    between atoms: _381  and  _382
REMARK  159  A    between atoms: _384  and  _386
REMARK  160  A    between atoms: _386  and  _387
REMARK  161  A    between atoms: _389  and  _391
REMARK  162  A    between atoms: _391  and  _392
REMARK  163  A    between atoms: _391  and  _394
REMARK  164  A    between atoms: _394  and  _395
REMARK  165  A    between atoms: _398  and  _400
REMARK  166  A    between atoms: _400  and  _401
REMARK  167  A    between atoms: _403  and  _405
REMARK  168  A    between atoms: _405  and  _406
REMARK  169  A    between atoms: _408  and  _410
REMARK  170  A    between atoms: _410  and  _411
REMARK  171  A    between atoms: _410  and  _413
REMARK  172  A    between atoms: _413  and  _414
REMARK  173  A    between atoms: _417  and  _419
REMARK  174  A    between atoms: _419  and  _420
REMARK  175  A    between atoms: _419  and  _422
REMARK  176  A    between atoms: _422  and  _423
REMARK  177  A    between atoms: _427  and  _428
REMARK  178  A    between atoms: _433  and  _435
REMARK  179  A    between atoms: _435  and  _436
REMARK  180  A    between atoms: _439  and  _441
REMARK  181  A    between atoms: _441  and  _442
REMARK  182  A    between atoms: _441  and  _444
REMARK  183  A    between atoms: _444  and  _445
REMARK  184  A    between atoms: _450  and  _452
REMARK  185  A    between atoms: _452  and  _453
REMARK  186  A    between atoms: _452  and  _455
REMARK  187  A    between atoms: _455  and  _456
REMARK  188  A    between atoms: _459  and  _461
REMARK  189  A    between atoms: _461  and  _462
REMARK  190  A    between atoms: _461  and  _464
REMARK  191  A    between atoms: _464  and  _465
REMARK  192  A    between atoms: _468  and  _470
REMARK  193  A    between atoms: _470  and  _471
REMARK  194  A    between atoms: _473  and  _475
REMARK  195  A    between atoms: _475  and  _476
REMARK  196  A    between atoms: _475  and  _478
REMARK  197  A    between atoms: _478  and  _479
REMARK  198  A    between atoms: _479  and  _480
REMARK  199  A    between atoms: _480  and  _481
REMARK  200  A    between atoms: _490  and  _492
REMARK  201  A    between atoms: _492  and  _493
REMARK  202  A    between atoms: _492  and  _495
REMARK  203  A    between atoms: _495  and  _496
REMARK                            x       y       z     vdW  Elec       q    Type
REMARK                         _______ _______ _______ _____ _____    ______ ____
ROOT
ATOM      1  O   HOH     1      18.394  34.972  19.656  0.00  0.00    +0.000 OA
ENDROOT
TORSDOF 0
REMARK  Name = ../refined-set-2016/2idw/2idw_pocket.pdb
REMARK  203 active torsions:
REMARK  status: ('A' for Active; 'I' for Inactive)
REMARK    1  A    between atoms: _1  and  _3
REMARK    2  A    between atoms: _3  and  _4
REMARK    3  A    between atoms: _3  and  _6
REMARK    4  A    between atoms: _6  and  _7
REMARK    5  A    between atoms: _7  and  _8
REMARK    6  A    between atoms: _8  and  _9
REMARK    7  A    between atoms: _18  and  _20
REMARK    8  A    between atoms: _20  and  _21
REMARK    9  A    between atoms: _20  and  _23
REMARK   10  A    between atoms: _23  and  _24
REMARK   11  A    between atoms: _27  and  _29
REMARK   12  A    between atoms: _29  and  _30
REMARK   13  A    between atoms: _29  and  _32
REMARK   14  A    between atoms: _32  and  _33
REMARK   15  A    between atoms: _36  and  _38
REMARK   16  A    between atoms: _38  and  _39
REMARK   17  A    between atoms: _38  and  _41
REMARK   18  A    between atoms: _41  and  _42
REMARK   19  A    between atoms: _45  and  _47
REMARK   20  A    between atoms: _47  and  _48
REMARK   21  A    between atoms: _47  and  _50
REMARK   22  A    between atoms: _50  and  _51
REMARK   23  A    between atoms: _54  and  _56
REMARK   24  A    between atoms: _56  and  _57
REMARK   25  A    between atoms: _59  and  _61
REMARK   26  A    between atoms: _61  and  _62
REMARK   27  A    between atoms: _65  and  _67
REMARK   28  A    between atoms: _67  and  _68
REMARK   29  A    between atoms: _67  and  _70
REMARK   30  A    between atoms: _70  and  _71
REMARK   31  A    between atoms: _74  and  _76
REMARK   32  A    between atoms: _76  and  _77
REMARK   33  A    between atoms: _76  and  _79
REMARK   34  A    between atoms: _79  and  _80
REMARK   35  A    between atoms: _83  and  _85
REMARK   36  A    between atoms: _85  and  _86
REMARK   37  A    between atoms: _85  and  _88
REMARK   38  A    between atoms: _88  and  _89
REMARK   39  A    between atoms: _92  and  _94
REMARK   40  A    between atoms: _94  and  _95
REMARK   41  A    between atoms: _94  and  _97
REMARK   42  A    between atoms: _100  and  _102
REMARK   43  A    between atoms: _102  and  _103
REMARK   44  A    between atoms: _102  and  _105
REMARK   45  A    between atoms: _105  and  _106
REMARK   46  A    between atoms: _106  and  _107
REMARK   47  A    between atoms: _107  and  _108
REMARK   48  A    between atoms: _108  and  _109
REMARK   49  A    between atoms: _113  and  _115
REMARK   50  A    between atoms: _115  and  _116
REMARK   51  A    between atoms: _115  and  _118
REMARK   52  A    between atoms: _118  and  _119
REMARK   53  A    between atoms: _119  and  _120
REMARK   54  A    between atoms: _122  and  _124
REMARK   55  A    between atoms: _124  and  _125
REMARK   56  A    between atoms: _124  and  _127
REMARK   57  A    between atoms: _127  and  _128
REMARK   58  A    between atoms: _131  and  _133
REMARK   59  A    between atoms: _133  and  _134
REMARK   60  A    between atoms: _136  and  _138
REMARK   61  A    between atoms: _138  and  _139
REMARK   62  A    between atoms: _141  and  _143
REMARK   63  A    between atoms: _143  and  _144
REMARK   64  A    between atoms: _143  and  _146
REMARK   65  A    between atoms: _146  and  _147
REMARK   66  A    between atoms: _150  and  _152
REMARK   67  A    between atoms: _152  and  _153
REMARK   68  A    between atoms: _155  and  _157
REMARK   69  A    between atoms: _157  and  _158
REMARK   70  A    between atoms: _160  and  _162
REMARK   71  A    between atoms: _162  and  _163
REMARK   72  A    between atoms: _162  and  _165
REMARK   73  A    between atoms: _165  and  _166
REMARK   74  A    between atoms: _172  and  _174
REMARK   75  A    between atoms: _174  and  _175
REMARK   76  A    between atoms: _174  and  _177
REMARK   77  A    between atoms: _177  and  _178
REMARK   78  A    between atoms: _181  and  _183
REMARK   79  A    between atoms: _183  and  _184
REMARK   80  A    between atoms: _183  and  _186
REMARK   81  A    between atoms: _189  and  _191
REMARK   82  A    between atoms: _191  and  _192
REMARK   83  A    between atoms: _191  and  _194
REMARK   84  A    between atoms: _194  and  _195
REMARK   85  A    between atoms: _198  and  _200
REMARK   86  A    between atoms: _200  and  _201
REMARK   87  A    between atoms: _200  and  _203
REMARK   88  A    between atoms: _203  and  _204
REMARK   89  A    between atoms: _208  and  _209
REMARK   90  A    between atoms: _214  and  _216
REMARK   91  A    between atoms: _216  and  _217
REMARK   92  A    between atoms: _220  and  _222
REMARK   93  A    between atoms: _222  and  _223
REMARK   94  A    between atoms: _222  and  _225
REMARK   95  A    between atoms: _225  and  _226
REMARK   96  A    between atoms: _231  and  _233
REMARK   97  A    between atoms: _233  and  _234
REMARK   98  A    between atoms: _233  and  _236
REMARK   99  A    between atoms: _236  and  _237
REMARK  100  A    between atoms: _240  and  _242
REMARK  101  A    between atoms: _242  and  _243
REMARK  102  A    between atoms: _242  and  _245
REMARK  103  A    between atoms: _245  and  _246
REMARK  104  A    between atoms: _249  and  _251
REMARK  105  A    between atoms: _251  and  _252
REMARK  106  A    between atoms: _254  and  _256
REMARK  107  A    between atoms: _256  and  _257
REMARK  108  A    between atoms: _256  and  _259
REMARK  109  A    between atoms: _259  and  _260
REMARK  110  A    between atoms: _260  and  _261
REMARK  111  A    between atoms: _261  and  _262
REMARK  112  A    between atoms: _271  and  _273
REMARK  113  A    between atoms: _273  and  _274
REMARK  114  A    between atoms: _273  and  _276
REMARK  115  A    between atoms: _276  and  _277
REMARK  116  A    between atoms: _277  and  _278
REMARK  117  A    between atoms: _278  and  _279
REMARK  118  A    between atoms: _288  and  _290
REMARK  119  A    between atoms: _290  and  _291
REMARK  120  A    between atoms: _290  and  _293
REMARK  121  A    between atoms: _293  and  _294
REMARK  122  A    between atoms: _297  and  _299
REMARK  123  A    between atoms: _299  and  _300
REMARK  124  A    between atoms: _299  and  _302
REMARK  125  A    between atoms: _302  and  _303
REMARK  126  A    between atoms: _306  and  _308
REMARK  127  A    between atoms: _308  and  _309
REMARK  128  A    between atoms: _308  and  _311
REMARK  129  A    between atoms: _311  and  _312
REMARK  130  A    between atoms: _315  and  _317
REMARK  131  A    between atoms: _317  and  _318
REMARK  132  A    between atoms: _317  and  _320
REMARK  133  A    between atoms: _320  and  _321
REMARK  134  A    between atoms: _324  and  _326
REMARK  135  A    between atoms: _326  and  _327
REMARK  136  A    between atoms: _329  and  _331
REMARK  137  A    between atoms: _331  and  _332
REMARK  138  A    between atoms: _335  and  _337
REMARK  139  A    between atoms: _337  and  _338
REMARK  140  A    between atoms: _337  and  _340
REMARK  141  A    between atoms: _340  and  _341
REMARK  142  A    between atoms: _344  and  _346
REMARK  143  A    between atoms: _346  and  _347
REMARK  144  A    between atoms: _346  and  _349
REMARK  145  A    between atoms: _349  and  _350
REMARK  146  A    between atoms: _353  and  _355
REMARK  147  A    between atoms: _355  and  _356
REMARK  148  A    between atoms: _355  and  _358
REMARK  149  A    between atoms: _358  and  _359
REMARK  150  A    between atoms: _362  and  _364
REMARK  151  A    between atoms: _364  and  _365
REMARK  152  A    between atoms: _364  and  _367
REMARK  153  A    between atoms: _370  and  _372
REMARK  154  A    between atoms: _372  and  _373
REMARK  155  A    between atoms: _372  and  _375
REMARK  156  A    between atoms: _375  and  _376
REMARK  157  A    between atoms: _379  and  _381
REMARK  158  A    between atoms: _381  and  _382
REMARK  159  A    between atoms: _384  and  _386
REMARK  160  A    between atoms: _386  and  _387
REMARK  161  A    between atoms: _389  and  _391
REMARK  162  A    between atoms: _391  and  _392
REMARK  163  A    between atoms: _391  and  _394
REMARK  164  A    between atoms: _394  and  _395
REMARK  165  A    between atoms: _398  and  _400
REMARK  166  A    between atoms: _400  and  _401
REMARK  167  A    between atoms: _403  and  _405
REMARK  168  A    between atoms: _405  and  _406
REMARK  169  A    between atoms: _408  and  _410
REMARK  170  A    between atoms: _410  and  _411
REMARK  171  A    between atoms: _410  and  _413
REMARK  172  A    between atoms: _413  and  _414
REMARK  173  A    between atoms: _417  and  _419
REMARK  174  A    between atoms: _419  and  _420
REMARK  175  A    between atoms: _419  and  _422
REMARK  176  A    between atoms: _422  and  _423
REMARK  177  A    between atoms: _427  and  _428
REMARK  178  A    between atoms: _433  and  _435
REMARK  179  A    between atoms: _435  and  _436
REMARK  180  A    between atoms: _439  and  _441
REMARK  181  A    between atoms: _441  and  _442
REMARK  182  A    between atoms: _441  and  _444
REMARK  183  A    between atoms: _444  and  _445
REMARK  184  A    between atoms: _450  and  _452
REMARK  185  A    between atoms: _452  and  _453
REMARK  186  A    between atoms: _452  and  _455
REMARK  187  A    between atoms: _455  and  _456
REMARK  188  A    between atoms: _459  and  _461
REMARK  189  A    between atoms: _461  and  _462
REMARK  190  A    between atoms: _461  and  _464
REMARK  191  A    between atoms: _464  and  _465
REMARK  192  A    between atoms: _468  and  _470
REMARK  193  A    between atoms: _470  and  _471
REMARK  194  A    between atoms: _473  and  _475
REMARK  195  A    between atoms: _475  and  _476
REMARK  196  A    between atoms: _475  and  _478
REMARK  197  A    between atoms: _478  and  _479
REMARK  198  A    between atoms: _479  and  _480
REMARK  199  A    between atoms: _480  and  _481
REMARK  200  A    between atoms: _490  and  _492
REMARK  201  A    between atoms: _492  and  _493
REMARK  202  A    between atoms: _492  and  _495
REMARK  203  A    between atoms: _495  and  _496
REMARK                            x       y       z     vdW  Elec       q    Type
REMARK                         _______ _______ _______ _____ _____    ______ ____
ROOT
ATOM      1  O   HOH     1      10.955  22.907  12.443  0.00  0.00    +0.000 OA
ENDROOT
TORSDOF 0
REMARK  Name = ../refined-set-2016/2idw/2idw_pocket.pdb
REMARK  203 active torsions:
REMARK  status: ('A' for Active; 'I' for Inactive)
REMARK    1  A    between atoms: _1  and  _3
REMARK    2  A    between atoms: _3  and  _4
REMARK    3  A    between atoms: _3  and  _6
REMARK    4  A    between atoms: _6  and  _7
REMARK    5  A    between atoms: _7  and  _8
REMARK    6  A    between atoms: _8  and  _9
REMARK    7  A    between atoms: _18  and  _20
REMARK    8  A    between atoms: _20  and  _21
REMARK    9  A    between atoms: _20  and  _23
REMARK   10  A    between atoms: _23  and  _24
REMARK   11  A    between atoms: _27  and  _29
REMARK   12  A    between atoms: _29  and  _30
REMARK   13  A    between atoms: _29  and  _32
REMARK   14  A    between atoms: _32  and  _33
REMARK   15  A    between atoms: _36  and  _38
REMARK   16  A    between atoms: _38  and  _39
REMARK   17  A    between atoms: _38  and  _41
REMARK   18  A    between atoms: _41  and  _42
REMARK   19  A    between atoms: _45  and  _47
REMARK   20  A    between atoms: _47  and  _48
REMARK   21  A    between atoms: _47  and  _50
REMARK   22  A    between atoms: _50  and  _51
REMARK   23  A    between atoms: _54  and  _56
REMARK   24  A    between atoms: _56  and  _57
REMARK   25  A    between atoms: _59  and  _61
REMARK   26  A    between atoms: _61  and  _62
REMARK   27  A    between atoms: _65  and  _67
REMARK   28  A    between atoms: _67  and  _68
REMARK   29  A    between atoms: _67  and  _70
REMARK   30  A    between atoms: _70  and  _71
REMARK   31  A    between atoms: _74  and  _76
REMARK   32  A    between atoms: _76  and  _77
REMARK   33  A    between atoms: _76  and  _79
REMARK   34  A    between atoms: _79  and  _80
REMARK   35  A    between atoms: _83  and  _85
REMARK   36  A    between atoms: _85  and  _86
REMARK   37  A    between atoms: _85  and  _88
REMARK   38  A    between atoms: _88  and  _89
REMARK   39  A    between atoms: _92  and  _94
REMARK   40  A    between atoms: _94  and  _95
REMARK   41  A    between atoms: _94  and  _97
REMARK   42  A    between atoms: _100  and  _102
REMARK   43  A    between atoms: _102  and  _103
REMARK   44  A    between atoms: _102  and  _105
REMARK   45  A    between atoms: _105  and  _106
REMARK   46  A    between atoms: _106  and  _107
REMARK   47  A    between atoms: _107  and  _108
REMARK   48  A    between atoms: _108  and  _109
REMARK   49  A    between atoms: _113  and  _115
REMARK   50  A    between atoms: _115  and  _116
REMARK   51  A    between atoms: _115  and  _118
REMARK   52  A    between atoms: _118  and  _119
REMARK   53  A    between atoms: _119  and  _120
REMARK   54  A    between atoms: _122  and  _124
REMARK   55  A    between atoms: _124  and  _125
REMARK   56  A    between atoms: _124  and  _127
REMARK   57  A    between atoms: _127  and  _128
REMARK   58  A    between atoms: _131  and  _133
REMARK   59  A    between atoms: _133  and  _134
REMARK   60  A    between atoms: _136  and  _138
REMARK   61  A    between atoms: _138  and  _139
REMARK   62  A    between atoms: _141  and  _143
REMARK   63  A    between atoms: _143  and  _144
REMARK   64  A    between atoms: _143  and  _146
REMARK   65  A    between atoms: _146  and  _147
REMARK   66  A    between atoms: _150  and  _152
REMARK   67  A    between atoms: _152  and  _153
REMARK   68  A    between atoms: _155  and  _157
REMARK   69  A    between atoms: _157  and  _158
REMARK   70  A    between atoms: _160  and  _162
REMARK   71  A    between atoms: _162  and  _163
REMARK   72  A    between atoms: _162  and  _165
REMARK   73  A    between atoms: _165  and  _166
REMARK   74  A    between atoms: _172  and  _174
REMARK   75  A    between atoms: _174  and  _175
REMARK   76  A    between atoms: _174  and  _177
REMARK   77  A    between atoms: _177  and  _178
REMARK   78  A    between atoms: _181  and  _183
REMARK   79  A    between atoms: _183  and  _184
REMARK   80  A    between atoms: _183  and  _186
REMARK   81  A    between atoms: _189  and  _191
REMARK   82  A    between atoms: _191  and  _192
REMARK   83  A    between atoms: _191  and  _194
REMARK   84  A    between atoms: _194  and  _195
REMARK   85  A    between atoms: _198  and  _200
REMARK   86  A    between atoms: _200  and  _201
REMARK   87  A    between atoms: _200  and  _203
REMARK   88  A    between atoms: _203  and  _204
REMARK   89  A    between atoms: _208  and  _209
REMARK   90  A    between atoms: _214  and  _216
REMARK   91  A    between atoms: _216  and  _217
REMARK   92  A    between atoms: _220  and  _222
REMARK   93  A    between atoms: _222  and  _223
REMARK   94  A    between atoms: _222  and  _225
REMARK   95  A    between atoms: _225  and  _226
REMARK   96  A    between atoms: _231  and  _233
REMARK   97  A    between atoms: _233  and  _234
REMARK   98  A    between atoms: _233  and  _236
REMARK   99  A    between atoms: _236  and  _237
REMARK  100  A    between atoms: _240  and  _242
REMARK  101  A    between atoms: _242  and  _243
REMARK  102  A    between atoms: _242  and  _245
REMARK  103  A    between atoms: _245  and  _246
REMARK  104  A    between atoms: _249  and  _251
REMARK  105  A    between atoms: _251  and  _252
REMARK  106  A    between atoms: _254  and  _256
REMARK  107  A    between atoms: _256  and  _257
REMARK  108  A    between atoms: _256  and  _259
REMARK  109  A    between atoms: _259  and  _260
REMARK  110  A    between atoms: _260  and  _261
REMARK  111  A    between atoms: _261  and  _262
REMARK  112  A    between atoms: _271  and  _273
REMARK  113  A    between atoms: _273  and  _274
REMARK  114  A    between atoms: _273  and  _276
REMARK  115  A    between atoms: _276  and  _277
REMARK  116  A    between atoms: _277  and  _278
REMARK  117  A    between atoms: _278  and  _279
REMARK  118  A    between atoms: _288  and  _290
REMARK  119  A    between atoms: _290  and  _291
REMARK  120  A    between atoms: _290  and  _293
REMARK  121  A    between atoms: _293  and  _294
REMARK  122  A    between atoms: _297  and  _299
REMARK  123  A    between atoms: _299  and  _300
REMARK  124  A    between atoms: _299  and  _302
REMARK  125  A    between atoms: _302  and  _303
REMARK  126  A    between atoms: _306  and  _308
REMARK  127  A    between atoms: _308  and  _309
REMARK  128  A    between atoms: _308  and  _311
REMARK  129  A    between atoms: _311  and  _312
REMARK  130  A    between atoms: _315  and  _317
REMARK  131  A    between atoms: _317  and  _318
REMARK  132  A    between atoms: _317  and  _320
REMARK  133  A    between atoms: _320  and  _321
REMARK  134  A    between atoms: _324  and  _326
REMARK  135  A    between atoms: _326  and  _327
REMARK  136  A    between atoms: _329  and  _331
REMARK  137  A    between atoms: _331  and  _332
REMARK  138  A    between atoms: _335  and  _337
REMARK  139  A    between atoms: _337  and  _338
REMARK  140  A    between atoms: _337  and  _340
REMARK  141  A    between atoms: _340  and  _341
REMARK  142  A    between atoms: _344  and  _346
REMARK  143  A    between atoms: _346  and  _347
REMARK  144  A    between atoms: _346  and  _349
REMARK  145  A    between atoms: _349  and  _350
REMARK  146  A    between atoms: _353  and  _355
REMARK  147  A    between atoms: _355  and  _356
REMARK  148  A    between atoms: _355  and  _358
REMARK  149  A    between atoms: _358  and  _359
REMARK  150  A    between atoms: _362  and  _364
REMARK  151  A    between atoms: _364  and  _365
REMARK  152  A    between atoms: _364  and  _367
REMARK  153  A    between atoms: _370  and  _372
REMARK  154  A    between atoms: _372  and  _373
REMARK  155  A    between atoms: _372  and  _375
REMARK  156  A    between atoms: _375  and  _376
REMARK  157  A    between atoms: _379  and  _381
REMARK  158  A    between atoms: _381  and  _382
REMARK  159  A    between atoms: _384  and  _386
REMARK  160  A    between atoms: _386  and  _387
REMARK  161  A    between atoms: _389  and  _391
REMARK  162  A    between atoms: _391  and  _392
REMARK  163  A    between atoms: _391  and  _394
REMARK  164  A    between atoms: _394  and  _395
REMARK  165  A    between atoms: _398  and  _400
REMARK  166  A    between atoms: _400  and  _401
REMARK  167  A    between atoms: _403  and  _405
REMARK  168  A    between atoms: _405  and  _406
REMARK  169  A    between atoms: _408  and  _410
REMARK  170  A    between atoms: _410  and  _411
REMARK  171  A    between atoms: _410  and  _413
REMARK  172  A    between atoms: _413  and  _414
REMARK  173  A    between atoms: _417  and  _419
REMARK  174  A    between atoms: _419  and  _420
REMARK  175  A    between atoms: _419  and  _422
REMARK  176  A    between atoms: _422  and  _423
REMARK  177  A    between atoms: _427  and  _428
REMARK  178  A    between atoms: _433  and  _435
REMARK  179  A    between atoms: _435  and  _436
REMARK  180  A    between atoms: _439  and  _441
REMARK  181  A    between atoms: _441  and  _442
REMARK  182  A    between atoms: _441  and  _444
REMARK  183  A    between atoms: _444  and  _445
REMARK  184  A    between atoms: _450  and  _452
REMARK  185  A    between atoms: _452  and  _453
REMARK  186  A    between atoms: _452  and  _455
REMARK  187  A    between atoms: _455  and  _456
REMARK  188  A    between atoms: _459  and  _461
REMARK  189  A    between atoms: _461  and  _462
REMARK  190  A    between atoms: _461  and  _464
REMARK  191  A    between atoms: _464  and  _465
REMARK  192  A    between atoms: _468  and  _470
REMARK  193  A    between atoms: _470  and  _471
REMARK  194  A    between atoms: _473  and  _475
REMARK  195  A    between atoms: _475  and  _476
REMARK  196  A    between atoms: _475  and  _478
REMARK  197  A    between atoms: _478  and  _479
REMARK  198  A    between atoms: _479  and  _480
REMARK  199  A    between atoms: _480  and  _481
REMARK  200  A    between atoms: _490  and  _492
REMARK  201  A    between atoms: _492  and  _493
REMARK  202  A    between atoms: _492  and  _495
REMARK  203  A    between atoms: _495  and  _496
REMARK                            x       y       z     vdW  Elec       q    Type
REMARK                         _______ _______ _______ _____ _____    ______ ____
ROOT
ATOM      1  O   HOH     1      21.433  36.536  16.031  0.00  0.00    +0.000 OA
ENDROOT
TORSDOF 0
REMARK  Name = ../refined-set-2016/2idw/2idw_pocket.pdb
REMARK  203 active torsions:
REMARK  status: ('A' for Active; 'I' for Inactive)
REMARK    1  A    between atoms: _1  and  _3
REMARK    2  A    between atoms: _3  and  _4
REMARK    3  A    between atoms: _3  and  _6
REMARK    4  A    between atoms: _6  and  _7
REMARK    5  A    between atoms: _7  and  _8
REMARK    6  A    between atoms: _8  and  _9
REMARK    7  A    between atoms: _18  and  _20
REMARK    8  A    between atoms: _20  and  _21
REMARK    9  A    between atoms: _20  and  _23
REMARK   10  A    between atoms: _23  and  _24
REMARK   11  A    between atoms: _27  and  _29
REMARK   12  A    between atoms: _29  and  _30
REMARK   13  A    between atoms: _29  and  _32
REMARK   14  A    between atoms: _32  and  _33
REMARK   15  A    between atoms: _36  and  _38
REMARK   16  A    between atoms: _38  and  _39
REMARK   17  A    between atoms: _38  and  _41
REMARK   18  A    between atoms: _41  and  _42
REMARK   19  A    between atoms: _45  and  _47
REMARK   20  A    between atoms: _47  and  _48
REMARK   21  A    between atoms: _47  and  _50
REMARK   22  A    between atoms: _50  and  _51
REMARK   23  A    between atoms: _54  and  _56
REMARK   24  A    between atoms: _56  and  _57
REMARK   25  A    between atoms: _59  and  _61
REMARK   26  A    between atoms: _61  and  _62
REMARK   27  A    between atoms: _65  and  _67
REMARK   28  A    between atoms: _67  and  _68
REMARK   29  A    between atoms: _67  and  _70
REMARK   30  A    between atoms: _70  and  _71
REMARK   31  A    between atoms: _74  and  _76
REMARK   32  A    between atoms: _76  and  _77
REMARK   33  A    between atoms: _76  and  _79
REMARK   34  A    between atoms: _79  and  _80
REMARK   35  A    between atoms: _83  and  _85
REMARK   36  A    between atoms: _85  and  _86
REMARK   37  A    between atoms: _85  and  _88
REMARK   38  A    between atoms: _88  and  _89
REMARK   39  A    between atoms: _92  and  _94
REMARK   40  A    between atoms: _94  and  _95
REMARK   41  A    between atoms: _94  and  _97
REMARK   42  A    between atoms: _100  and  _102
REMARK   43  A    between atoms: _102  and  _103
REMARK   44  A    between atoms: _102  and  _105
REMARK   45  A    between atoms: _105  and  _106
REMARK   46  A    between atoms: _106  and  _107
REMARK   47  A    between atoms: _107  and  _108
REMARK   48  A    between atoms: _108  and  _109
REMARK   49  A    between atoms: _113  and  _115
REMARK   50  A    between atoms: _115  and  _116
REMARK   51  A    between atoms: _115  and  _118
REMARK   52  A    between atoms: _118  and  _119
REMARK   53  A    between atoms: _119  and  _120
REMARK   54  A    between atoms: _122  and  _124
REMARK   55  A    between atoms: _124  and  _125
REMARK   56  A    between atoms: _124  and  _127
REMARK   57  A    between atoms: _127  and  _128
REMARK   58  A    between atoms: _131  and  _133
REMARK   59  A    between atoms: _133  and  _134
REMARK   60  A    between atoms: _136  and  _138
REMARK   61  A    between atoms: _138  and  _139
REMARK   62  A    between atoms: _141  and  _143
REMARK   63  A    between atoms: _143  and  _144
REMARK   64  A    between atoms: _143  and  _146
REMARK   65  A    between atoms: _146  and  _147
REMARK   66  A    between atoms: _150  and  _152
REMARK   67  A    between atoms: _152  and  _153
REMARK   68  A    between atoms: _155  and  _157
REMARK   69  A    between atoms: _157  and  _158
REMARK   70  A    between atoms: _160  and  _162
REMARK   71  A    between atoms: _162  and  _163
REMARK   72  A    between atoms: _162  and  _165
REMARK   73  A    between atoms: _165  and  _166
REMARK   74  A    between atoms: _172  and  _174
REMARK   75  A    between atoms: _174  and  _175
REMARK   76  A    between atoms: _174  and  _177
REMARK   77  A    between atoms: _177  and  _178
REMARK   78  A    between atoms: _181  and  _183
REMARK   79  A    between atoms: _183  and  _184
REMARK   80  A    between atoms: _183  and  _186
REMARK   81  A    between atoms: _189  and  _191
REMARK   82  A    between atoms: _191  and  _192
REMARK   83  A    between atoms: _191  and  _194
REMARK   84  A    between atoms: _194  and  _195
REMARK   85  A    between atoms: _198  and  _200
REMARK   86  A    between atoms: _200  and  _201
REMARK   87  A    between atoms: _200  and  _203
REMARK   88  A    between atoms: _203  and  _204
REMARK   89  A    between atoms: _208  and  _209
REMARK   90  A    between atoms: _214  and  _216
REMARK   91  A    between atoms: _216  and  _217
REMARK   92  A    between atoms: _220  and  _222
REMARK   93  A    between atoms: _222  and  _223
REMARK   94  A    between atoms: _222  and  _225
REMARK   95  A    between atoms: _225  and  _226
REMARK   96  A    between atoms: _231  and  _233
REMARK   97  A    between atoms: _233  and  _234
REMARK   98  A    between atoms: _233  and  _236
REMARK   99  A    between atoms: _236  and  _237
REMARK  100  A    between atoms: _240  and  _242
REMARK  101  A    between atoms: _242  and  _243
REMARK  102  A    between atoms: _242  and  _245
REMARK  103  A    between atoms: _245  and  _246
REMARK  104  A    between atoms: _249  and  _251
REMARK  105  A    between atoms: _251  and  _252
REMARK  106  A    between atoms: _254  and  _256
REMARK  107  A    between atoms: _256  and  _257
REMARK  108  A    between atoms: _256  and  _259
REMARK  109  A    between atoms: _259  and  _260
REMARK  110  A    between atoms: _260  and  _261
REMARK  111  A    between atoms: _261  and  _262
REMARK  112  A    between atoms: _271  and  _273
REMARK  113  A    between atoms: _273  and  _274
REMARK  114  A    between atoms: _273  and  _276
REMARK  115  A    between atoms: _276  and  _277
REMARK  116  A    between atoms: _277  and  _278
REMARK  117  A    between atoms: _278  and  _279
REMARK  118  A    between atoms: _288  and  _290
REMARK  119  A    between atoms: _290  and  _291
REMARK  120  A    between atoms: _290  and  _293
REMARK  121  A    between atoms: _293  and  _294
REMARK  122  A    between atoms: _297  and  _299
REMARK  123  A    between atoms: _299  and  _300
REMARK  124  A    between atoms: _299  and  _302
REMARK  125  A    between atoms: _302  and  _303
REMARK  126  A    between atoms: _306  and  _308
REMARK  127  A    between atoms: _308  and  _309
REMARK  128  A    between atoms: _308  and  _311
REMARK  129  A    between atoms: _311  and  _312
REMARK  130  A    between atoms: _315  and  _317
REMARK  131  A    between atoms: _317  and  _318
REMARK  132  A    between atoms: _317  and  _320
REMARK  133  A    between atoms: _320  and  _321
REMARK  134  A    between atoms: _324  and  _326
REMARK  135  A    between atoms: _326  and  _327
REMARK  136  A    between atoms: _329  and  _331
REMARK  137  A    between atoms: _331  and  _332
REMARK  138  A    between atoms: _335  and  _337
REMARK  139  A    between atoms: _337  and  _338
REMARK  140  A    between atoms: _337  and  _340
REMARK  141  A    between atoms: _340  and  _341
REMARK  142  A    between atoms: _344  and  _346
REMARK  143  A    between atoms: _346  and  _347
REMARK  144  A    between atoms: _346  and  _349
REMARK  145  A    between atoms: _349  and  _350
REMARK  146  A    between atoms: _353  and  _355
REMARK  147  A    between atoms: _355  and  _356
REMARK  148  A    between atoms: _355  and  _358
REMARK  149  A    between atoms: _358  and  _359
REMARK  150  A    between atoms: _362  and  _364
REMARK  151  A    between atoms: _364  and  _365
REMARK  152  A    between atoms: _364  and  _367
REMARK  153  A    between atoms: _370  and  _372
REMARK  154  A    between atoms: _372  and  _373
REMARK  155  A    between atoms: _372  and  _375
REMARK  156  A    between atoms: _375  and  _376
REMARK  157  A    between atoms: _379  and  _381
REMARK  158  A    between atoms: _381  and  _382
REMARK  159  A    between atoms: _384  and  _386
REMARK  160  A    between atoms: _386  and  _387
REMARK  161  A    between atoms: _389  and  _391
REMARK  162  A    between atoms: _391  and  _392
REMARK  163  A    between atoms: _391  and  _394
REMARK  164  A    between atoms: _394  and  _395
REMARK  165  A    between atoms: _398  and  _400
REMARK  166  A    between atoms: _400  and  _401
REMARK  167  A    between atoms: _403  and  _405
REMARK  168  A    between atoms: _405  and  _406
REMARK  169  A    between atoms: _408  and  _410
REMARK  170  A    between atoms: _410  and  _411
REMARK  171  A    between atoms: _410  and  _413
REMARK  172  A    between atoms: _413  and  _414
REMARK  173  A    between atoms: _417  and  _419
REMARK  174  A    between atoms: _419  and  _420
REMARK  175  A    between atoms: _419  and  _422
REMARK  176  A    between atoms: _422  and  _423
REMARK  177  A    between atoms: _427  and  _428
REMARK  178  A    between atoms: _433  and  _435
REMARK  179  A    between atoms: _435  and  _436
REMARK  180  A    between atoms: _439  and  _441
REMARK  181  A    between atoms: _441  and  _442
REMARK  182  A    between atoms: _441  and  _444
REMARK  183  A    between atoms: _444  and  _445
REMARK  184  A    between atoms: _450  and  _452
REMARK  185  A    between atoms: _452  and  _453
REMARK  186  A    between atoms: _452  and  _455
REMARK  187  A    between atoms: _455  and  _456
REMARK  188  A    between atoms: _459  and  _461
REMARK  189  A    between atoms: _461  and  _462
REMARK  190  A    between atoms: _461  and  _464
REMARK  191  A    between atoms: _464  and  _465
REMARK  192  A    between atoms: _468  and  _470
REMARK  193  A    between atoms: _470  and  _471
REMARK  194  A    between atoms: _473  and  _475
REMARK  195  A    between atoms: _475  and  _476
REMARK  196  A    between atoms: _475  and  _478
REMARK  197  A    between atoms: _478  and  _479
REMARK  198  A    between atoms: _479  and  _480
REMARK  199  A    between atoms: _480  and  _481
REMARK  200  A    between atoms: _490  and  _492
REMARK  201  A    between atoms: _492  and  _493
REMARK  202  A    between atoms: _492  and  _495
REMARK  203  A    between atoms: _495  and  _496
REMARK                            x       y       z     vdW  Elec       q    Type
REMARK                         _______ _______ _______ _____ _____    ______ ____
ROOT
ATOM      1  O   HOH     1      14.477  39.994  20.281  0.00  0.00    +0.000 OA
ENDROOT
TORSDOF 0
REMARK  Name = ../refined-set-2016/2idw/2idw_pocket.pdb
REMARK  203 active torsions:
REMARK  status: ('A' for Active; 'I' for Inactive)
REMARK    1  A    between atoms: _1  and  _3
REMARK    2  A    between atoms: _3  and  _4
REMARK    3  A    between atoms: _3  and  _6
REMARK    4  A    between atoms: _6  and  _7
REMARK    5  A    between atoms: _7  and  _8
REMARK    6  A    between atoms: _8  and  _9
REMARK    7  A    between atoms: _18  and  _20
REMARK    8  A    between atoms: _20  and  _21
REMARK    9  A    between atoms: _20  and  _23
REMARK   10  A    between atoms: _23  and  _24
REMARK   11  A    between atoms: _27  and  _29
REMARK   12  A    between atoms: _29  and  _30
REMARK   13  A    between atoms: _29  and  _32
REMARK   14  A    between atoms: _32  and  _33
REMARK   15  A    between atoms: _36  and  _38
REMARK   16  A    between atoms: _38  and  _39
REMARK   17  A    between atoms: _38  and  _41
REMARK   18  A    between atoms: _41  and  _42
REMARK   19  A    between atoms: _45  and  _47
REMARK   20  A    between atoms: _47  and  _48
REMARK   21  A    between atoms: _47  and  _50
REMARK   22  A    between atoms: _50  and  _51
REMARK   23  A    between atoms: _54  and  _56
REMARK   24  A    between atoms: _56  and  _57
REMARK   25  A    between atoms: _59  and  _61
REMARK   26  A    between atoms: _61  and  _62
REMARK   27  A    between atoms: _65  and  _67
REMARK   28  A    between atoms: _67  and  _68
REMARK   29  A    between atoms: _67  and  _70
REMARK   30  A    between atoms: _70  and  _71
REMARK   31  A    between atoms: _74  and  _76
REMARK   32  A    between atoms: _76  and  _77
REMARK   33  A    between atoms: _76  and  _79
REMARK   34  A    between atoms: _79  and  _80
REMARK   35  A    between atoms: _83  and  _85
REMARK   36  A    between atoms: _85  and  _86
REMARK   37  A    between atoms: _85  and  _88
REMARK   38  A    between atoms: _88  and  _89
REMARK   39  A    between atoms: _92  and  _94
REMARK   40  A    between atoms: _94  and  _95
REMARK   41  A    between atoms: _94  and  _97
REMARK   42  A    between atoms: _100  and  _102
REMARK   43  A    between atoms: _102  and  _103
REMARK   44  A    between atoms: _102  and  _105
REMARK   45  A    between atoms: _105  and  _106
REMARK   46  A    between atoms: _106  and  _107
REMARK   47  A    between atoms: _107  and  _108
REMARK   48  A    between atoms: _108  and  _109
REMARK   49  A    between atoms: _113  and  _115
REMARK   50  A    between atoms: _115  and  _116
REMARK   51  A    between atoms: _115  and  _118
REMARK   52  A    between atoms: _118  and  _119
REMARK   53  A    between atoms: _119  and  _120
REMARK   54  A    between atoms: _122  and  _124
REMARK   55  A    between atoms: _124  and  _125
REMARK   56  A    between atoms: _124  and  _127
REMARK   57  A    between atoms: _127  and  _128
REMARK   58  A    between atoms: _131  and  _133
REMARK   59  A    between atoms: _133  and  _134
REMARK   60  A    between atoms: _136  and  _138
REMARK   61  A    between atoms: _138  and  _139
REMARK   62  A    between atoms: _141  and  _143
REMARK   63  A    between atoms: _143  and  _144
REMARK   64  A    between atoms: _143  and  _146
REMARK   65  A    between atoms: _146  and  _147
REMARK   66  A    between atoms: _150  and  _152
REMARK   67  A    between atoms: _152  and  _153
REMARK   68  A    between atoms: _155  and  _157
REMARK   69  A    between atoms: _157  and  _158
REMARK   70  A    between atoms: _160  and  _162
REMARK   71  A    between atoms: _162  and  _163
REMARK   72  A    between atoms: _162  and  _165
REMARK   73  A    between atoms: _165  and  _166
REMARK   74  A    between atoms: _172  and  _174
REMARK   75  A    between atoms: _174  and  _175
REMARK   76  A    between atoms: _174  and  _177
REMARK   77  A    between atoms: _177  and  _178
REMARK   78  A    between atoms: _181  and  _183
REMARK   79  A    between atoms: _183  and  _184
REMARK   80  A    between atoms: _183  and  _186
REMARK   81  A    between atoms: _189  and  _191
REMARK   82  A    between atoms: _191  and  _192
REMARK   83  A    between atoms: _191  and  _194
REMARK   84  A    between atoms: _194  and  _195
REMARK   85  A    between atoms: _198  and  _200
REMARK   86  A    between atoms: _200  and  _201
REMARK   87  A    between atoms: _200  and  _203
REMARK   88  A    between atoms: _203  and  _204
REMARK   89  A    between atoms: _208  and  _209
REMARK   90  A    between atoms: _214  and  _216
REMARK   91  A    between atoms: _216  and  _217
REMARK   92  A    between atoms: _220  and  _222
REMARK   93  A    between atoms: _222  and  _223
REMARK   94  A    between atoms: _222  and  _225
REMARK   95  A    between atoms: _225  and  _226
REMARK   96  A    between atoms: _231  and  _233
REMARK   97  A    between atoms: _233  and  _234
REMARK   98  A    between atoms: _233  and  _236
REMARK   99  A    between atoms: _236  and  _237
REMARK  100  A    between atoms: _240  and  _242
REMARK  101  A    between atoms: _242  and  _243
REMARK  102  A    between atoms: _242  and  _245
REMARK  103  A    between atoms: _245  and  _246
REMARK  104  A    between atoms: _249  and  _251
REMARK  105  A    between atoms: _251  and  _252
REMARK  106  A    between atoms: _254  and  _256
REMARK  107  A    between atoms: _256  and  _257
REMARK  108  A    between atoms: _256  and  _259
REMARK  109  A    between atoms: _259  and  _260
REMARK  110  A    between atoms: _260  and  _261
REMARK  111  A    between atoms: _261  and  _262
REMARK  112  A    between atoms: _271  and  _273
REMARK  113  A    between atoms: _273  and  _274
REMARK  114  A    between atoms: _273  and  _276
REMARK  115  A    between atoms: _276  and  _277
REMARK  116  A    between atoms: _277  and  _278
REMARK  117  A    between atoms: _278  and  _279
REMARK  118  A    between atoms: _288  and  _290
REMARK  119  A    between atoms: _290  and  _291
REMARK  120  A    between atoms: _290  and  _293
REMARK  121  A    between atoms: _293  and  _294
REMARK  122  A    between atoms: _297  and  _299
REMARK  123  A    between atoms: _299  and  _300
REMARK  124  A    between atoms: _299  and  _302
REMARK  125  A    between atoms: _302  and  _303
REMARK  126  A    between atoms: _306  and  _308
REMARK  127  A    between atoms: _308  and  _309
REMARK  128  A    between atoms: _308  and  _311
REMARK  129  A    between atoms: _311  and  _312
REMARK  130  A    between atoms: _315  and  _317
REMARK  131  A    between atoms: _317  and  _318
REMARK  132  A    between atoms: _317  and  _320
REMARK  133  A    between atoms: _320  and  _321
REMARK  134  A    between atoms: _324  and  _326
REMARK  135  A    between atoms: _326  and  _327
REMARK  136  A    between atoms: _329  and  _331
REMARK  137  A    between atoms: _331  and  _332
REMARK  138  A    between atoms: _335  and  _337
REMARK  139  A    between atoms: _337  and  _338
REMARK  140  A    between atoms: _337  and  _340
REMARK  141  A    between atoms: _340  and  _341
REMARK  142  A    between atoms: _344  and  _346
REMARK  143  A    between atoms: _346  and  _347
REMARK  144  A    between atoms: _346  and  _349
REMARK  145  A    between atoms: _349  and  _350
REMARK  146  A    between atoms: _353  and  _355
REMARK  147  A    between atoms: _355  and  _356
REMARK  148  A    between atoms: _355  and  _358
REMARK  149  A    between atoms: _358  and  _359
REMARK  150  A    between atoms: _362  and  _364
REMARK  151  A    between atoms: _364  and  _365
REMARK  152  A    between atoms: _364  and  _367
REMARK  153  A    between atoms: _370  and  _372
REMARK  154  A    between atoms: _372  and  _373
REMARK  155  A    between atoms: _372  and  _375
REMARK  156  A    between atoms: _375  and  _376
REMARK  157  A    between atoms: _379  and  _381
REMARK  158  A    between atoms: _381  and  _382
REMARK  159  A    between atoms: _384  and  _386
REMARK  160  A    between atoms: _386  and  _387
REMARK  161  A    between atoms: _389  and  _391
REMARK  162  A    between atoms: _391  and  _392
REMARK  163  A    between atoms: _391  and  _394
REMARK  164  A    between atoms: _394  and  _395
REMARK  165  A    between atoms: _398  and  _400
REMARK  166  A    between atoms: _400  and  _401
REMARK  167  A    between atoms: _403  and  _405
REMARK  168  A    between atoms: _405  and  _406
REMARK  169  A    between atoms: _408  and  _410
REMARK  170  A    between atoms: _410  and  _411
REMARK  171  A    between atoms: _410  and  _413
REMARK  172  A    between atoms: _413  and  _414
REMARK  173  A    between atoms: _417  and  _419
REMARK  174  A    between atoms: _419  and  _420
REMARK  175  A    between atoms: _419  and  _422
REMARK  176  A    between atoms: _422  and  _423
REMARK  177  A    between atoms: _427  and  _428
REMARK  178  A    between atoms: _433  and  _435
REMARK  179  A    between atoms: _435  and  _436
REMARK  180  A    between atoms: _439  and  _441
REMARK  181  A    between atoms: _441  and  _442
REMARK  182  A    between atoms: _441  and  _444
REMARK  183  A    between atoms: _444  and  _445
REMARK  184  A    between atoms: _450  and  _452
REMARK  185  A    between atoms: _452  and  _453
REMARK  186  A    between atoms: _452  and  _455
REMARK  187  A    between atoms: _455  and  _456
REMARK  188  A    between atoms: _459  and  _461
REMARK  189  A    between atoms: _461  and  _462
REMARK  190  A    between atoms: _461  and  _464
REMARK  191  A    between atoms: _464  and  _465
REMARK  192  A    between atoms: _468  and  _470
REMARK  193  A    between atoms: _470  and  _471
REMARK  194  A    between atoms: _473  and  _475
REMARK  195  A    between atoms: _475  and  _476
REMARK  196  A    between atoms: _475  and  _478
REMARK  197  A    between atoms: _478  and  _479
REMARK  198  A    between atoms: _479  and  _480
REMARK  199  A    between atoms: _480  and  _481
REMARK  200  A    between atoms: _490  and  _492
REMARK  201  A    between atoms: _492  and  _493
REMARK  202  A    between atoms: _492  and  _495
REMARK  203  A    between atoms: _495  and  _496
REMARK                            x       y       z     vdW  Elec       q    Type
REMARK                         _______ _______ _______ _____ _____    ______ ____
ROOT
ATOM      1  O   HOH     1      13.641  43.561  17.926  0.00  0.00    +0.000 OA
ENDROOT
TORSDOF 0
REMARK  Name = ../refined-set-2016/2idw/2idw_pocket.pdb
REMARK  203 active torsions:
REMARK  status: ('A' for Active; 'I' for Inactive)
REMARK    1  A    between atoms: _1  and  _3
REMARK    2  A    between atoms: _3  and  _4
REMARK    3  A    between atoms: _3  and  _6
REMARK    4  A    between atoms: _6  and  _7
REMARK    5  A    between atoms: _7  and  _8
REMARK    6  A    between atoms: _8  and  _9
REMARK    7  A    between atoms: _18  and  _20
REMARK    8  A    between atoms: _20  and  _21
REMARK    9  A    between atoms: _20  and  _23
REMARK   10  A    between atoms: _23  and  _24
REMARK   11  A    between atoms: _27  and  _29
REMARK   12  A    between atoms: _29  and  _30
REMARK   13  A    between atoms: _29  and  _32
REMARK   14  A    between atoms: _32  and  _33
REMARK   15  A    between atoms: _36  and  _38
REMARK   16  A    between atoms: _38  and  _39
REMARK   17  A    between atoms: _38  and  _41
REMARK   18  A    between atoms: _41  and  _42
REMARK   19  A    between atoms: _45  and  _47
REMARK   20  A    between atoms: _47  and  _48
REMARK   21  A    between atoms: _47  and  _50
REMARK   22  A    between atoms: _50  and  _51
REMARK   23  A    between atoms: _54  and  _56
REMARK   24  A    between atoms: _56  and  _57
REMARK   25  A    between atoms: _59  and  _61
REMARK   26  A    between atoms: _61  and  _62
REMARK   27  A    between atoms: _65  and  _67
REMARK   28  A    between atoms: _67  and  _68
REMARK   29  A    between atoms: _67  and  _70
REMARK   30  A    between atoms: _70  and  _71
REMARK   31  A    between atoms: _74  and  _76
REMARK   32  A    between atoms: _76  and  _77
REMARK   33  A    between atoms: _76  and  _79
REMARK   34  A    between atoms: _79  and  _80
REMARK   35  A    between atoms: _83  and  _85
REMARK   36  A    between atoms: _85  and  _86
REMARK   37  A    between atoms: _85  and  _88
REMARK   38  A    between atoms: _88  and  _89
REMARK   39  A    between atoms: _92  and  _94
REMARK   40  A    between atoms: _94  and  _95
REMARK   41  A    between atoms: _94  and  _97
REMARK   42  A    between atoms: _100  and  _102
REMARK   43  A    between atoms: _102  and  _103
REMARK   44  A    between atoms: _102  and  _105
REMARK   45  A    between atoms: _105  and  _106
REMARK   46  A    between atoms: _106  and  _107
REMARK   47  A    between atoms: _107  and  _108
REMARK   48  A    between atoms: _108  and  _109
REMARK   49  A    between atoms: _113  and  _115
REMARK   50  A    between atoms: _115  and  _116
REMARK   51  A    between atoms: _115  and  _118
REMARK   52  A    between atoms: _118  and  _119
REMARK   53  A    between atoms: _119  and  _120
REMARK   54  A    between atoms: _122  and  _124
REMARK   55  A    between atoms: _124  and  _125
REMARK   56  A    between atoms: _124  and  _127
REMARK   57  A    between atoms: _127  and  _128
REMARK   58  A    between atoms: _131  and  _133
REMARK   59  A    between atoms: _133  and  _134
REMARK   60  A    between atoms: _136  and  _138
REMARK   61  A    between atoms: _138  and  _139
REMARK   62  A    between atoms: _141  and  _143
REMARK   63  A    between atoms: _143  and  _144
REMARK   64  A    between atoms: _143  and  _146
REMARK   65  A    between atoms: _146  and  _147
REMARK   66  A    between atoms: _150  and  _152
REMARK   67  A    between atoms: _152  and  _153
REMARK   68  A    between atoms: _155  and  _157
REMARK   69  A    between atoms: _157  and  _158
REMARK   70  A    between atoms: _160  and  _162
REMARK   71  A    between atoms: _162  and  _163
REMARK   72  A    between atoms: _162  and  _165
REMARK   73  A    between atoms: _165  and  _166
REMARK   74  A    between atoms: _172  and  _174
REMARK   75  A    between atoms: _174  and  _175
REMARK   76  A    between atoms: _174  and  _177
REMARK   77  A    between atoms: _177  and  _178
REMARK   78  A    between atoms: _181  and  _183
REMARK   79  A    between atoms: _183  and  _184
REMARK   80  A    between atoms: _183  and  _186
REMARK   81  A    between atoms: _189  and  _191
REMARK   82  A    between atoms: _191  and  _192
REMARK   83  A    between atoms: _191  and  _194
REMARK   84  A    between atoms: _194  and  _195
REMARK   85  A    between atoms: _198  and  _200
REMARK   86  A    between atoms: _200  and  _201
REMARK   87  A    between atoms: _200  and  _203
REMARK   88  A    between atoms: _203  and  _204
REMARK   89  A    between atoms: _208  and  _209
REMARK   90  A    between atoms: _214  and  _216
REMARK   91  A    between atoms: _216  and  _217
REMARK   92  A    between atoms: _220  and  _222
REMARK   93  A    between atoms: _222  and  _223
REMARK   94  A    between atoms: _222  and  _225
REMARK   95  A    between atoms: _225  and  _226
REMARK   96  A    between atoms: _231  and  _233
REMARK   97  A    between atoms: _233  and  _234
REMARK   98  A    between atoms: _233  and  _236
REMARK   99  A    between atoms: _236  and  _237
REMARK  100  A    between atoms: _240  and  _242
REMARK  101  A    between atoms: _242  and  _243
REMARK  102  A    between atoms: _242  and  _245
REMARK  103  A    between atoms: _245  and  _246
REMARK  104  A    between atoms: _249  and  _251
REMARK  105  A    between atoms: _251  and  _252
REMARK  106  A    between atoms: _254  and  _256
REMARK  107  A    between atoms: _256  and  _257
REMARK  108  A    between atoms: _256  and  _259
REMARK  109  A    between atoms: _259  and  _260
REMARK  110  A    between atoms: _260  and  _261
REMARK  111  A    between atoms: _261  and  _262
REMARK  112  A    between atoms: _271  and  _273
REMARK  113  A    between atoms: _273  and  _274
REMARK  114  A    between atoms: _273  and  _276
REMARK  115  A    between atoms: _276  and  _277
REMARK  116  A    between atoms: _277  and  _278
REMARK  117  A    between atoms: _278  and  _279
REMARK  118  A    between atoms: _288  and  _290
REMARK  119  A    between atoms: _290  and  _291
REMARK  120  A    between atoms: _290  and  _293
REMARK  121  A    between atoms: _293  and  _294
REMARK  122  A    between atoms: _297  and  _299
REMARK  123  A    between atoms: _299  and  _300
REMARK  124  A    between atoms: _299  and  _302
REMARK  125  A    between atoms: _302  and  _303
REMARK  126  A    between atoms: _306  and  _308
REMARK  127  A    between atoms: _308  and  _309
REMARK  128  A    between atoms: _308  and  _311
REMARK  129  A    between atoms: _311  and  _312
REMARK  130  A    between atoms: _315  and  _317
REMARK  131  A    between atoms: _317  and  _318
REMARK  132  A    between atoms: _317  and  _320
REMARK  133  A    between atoms: _320  and  _321
REMARK  134  A    between atoms: _324  and  _326
REMARK  135  A    between atoms: _326  and  _327
REMARK  136  A    between atoms: _329  and  _331
REMARK  137  A    between atoms: _331  and  _332
REMARK  138  A    between atoms: _335  and  _337
REMARK  139  A    between atoms: _337  and  _338
REMARK  140  A    between atoms: _337  and  _340
REMARK  141  A    between atoms: _340  and  _341
REMARK  142  A    between atoms: _344  and  _346
REMARK  143  A    between atoms: _346  and  _347
REMARK  144  A    between atoms: _346  and  _349
REMARK  145  A    between atoms: _349  and  _350
REMARK  146  A    between atoms: _353  and  _355
REMARK  147  A    between atoms: _355  and  _356
REMARK  148  A    between atoms: _355  and  _358
REMARK  149  A    between atoms: _358  and  _359
REMARK  150  A    between atoms: _362  and  _364
REMARK  151  A    between atoms: _364  and  _365
REMARK  152  A    between atoms: _364  and  _367
REMARK  153  A    between atoms: _370  and  _372
REMARK  154  A    between atoms: _372  and  _373
REMARK  155  A    between atoms: _372  and  _375
REMARK  156  A    between atoms: _375  and  _376
REMARK  157  A    between atoms: _379  and  _381
REMARK  158  A    between atoms: _381  and  _382
REMARK  159  A    between atoms: _384  and  _386
REMARK  160  A    between atoms: _386  and  _387
REMARK  161  A    between atoms: _389  and  _391
REMARK  162  A    between atoms: _391  and  _392
REMARK  163  A    between atoms: _391  and  _394
REMARK  164  A    between atoms: _394  and  _395
REMARK  165  A    between atoms: _398  and  _400
REMARK  166  A    between atoms: _400  and  _401
REMARK  167  A    between atoms: _403  and  _405
REMARK  168  A    between atoms: _405  and  _406
REMARK  169  A    between atoms: _408  and  _410
REMARK  170  A    between atoms: _410  and  _411
REMARK  171  A    between atoms: _410  and  _413
REMARK  172  A    between atoms: _413  and  _414
REMARK  173  A    between atoms: _417  and  _419
REMARK  174  A    between atoms: _419  and  _420
REMARK  175  A    between atoms: _419  and  _422
REMARK  176  A    between atoms: _422  and  _423
REMARK  177  A    between atoms: _427  and  _428
REMARK  178  A    between atoms: _433  and  _435
REMARK  179  A    between atoms: _435  and  _436
REMARK  180  A    between atoms: _439  and  _441
REMARK  181  A    between atoms: _441  and  _442
REMARK  182  A    between atoms: _441  and  _444
REMARK  183  A    between atoms: _444  and  _445
REMARK  184  A    between atoms: _450  and  _452
REMARK  185  A    between atoms: _452  and  _453
REMARK  186  A    between atoms: _452  and  _455
REMARK  187  A    between atoms: _455  and  _456
REMARK  188  A    between atoms: _459  and  _461
REMARK  189  A    between atoms: _461  and  _462
REMARK  190  A    between atoms: _461  and  _464
REMARK  191  A    between atoms: _464  and  _465
REMARK  192  A    between atoms: _468  and  _470
REMARK  193  A    between atoms: _470  and  _471
REMARK  194  A    between atoms: _473  and  _475
REMARK  195  A    between atoms: _475  and  _476
REMARK  196  A    between atoms: _475  and  _478
REMARK  197  A    between atoms: _478  and  _479
REMARK  198  A    between atoms: _479  and  _480
REMARK  199  A    between atoms: _480  and  _481
REMARK  200  A    between atoms: _490  and  _492
REMARK  201  A    between atoms: _492  and  _493
REMARK  202  A    between atoms: _492  and  _495
REMARK  203  A    between atoms: _495  and  _496
REMARK                            x       y       z     vdW  Elec       q    Type
REMARK                         _______ _______ _______ _____ _____    ______ ____
ROOT
ATOM      1  O   UNL     1      16.299  42.240  16.035  0.00  0.00    +0.000 OA
ATOM      2  O   UNL     1      15.281  42.537  17.422  0.00  0.00    +0.000 OA
ATOM      3  O   UNL     1      16.002  43.636  16.440  0.00  0.00    +0.000 OA
ENDROOT
TORSDOF 0
REMARK  Name = ../refined-set-2016/2idw/2idw_pocket.pdb
REMARK  203 active torsions:
REMARK  status: ('A' for Active; 'I' for Inactive)
REMARK    1  A    between atoms: _1  and  _3
REMARK    2  A    between atoms: _3  and  _4
REMARK    3  A    between atoms: _3  and  _6
REMARK    4  A    between atoms: _6  and  _7
REMARK    5  A    between atoms: _7  and  _8
REMARK    6  A    between atoms: _8  and  _9
REMARK    7  A    between atoms: _18  and  _20
REMARK    8  A    between atoms: _20  and  _21
REMARK    9  A    between atoms: _20  and  _23
REMARK   10  A    between atoms: _23  and  _24
REMARK   11  A    between atoms: _27  and  _29
REMARK   12  A    between atoms: _29  and  _30
REMARK   13  A    between atoms: _29  and  _32
REMARK   14  A    between atoms: _32  and  _33
REMARK   15  A    between atoms: _36  and  _38
REMARK   16  A    between atoms: _38  and  _39
REMARK   17  A    between atoms: _38  and  _41
REMARK   18  A    between atoms: _41  and  _42
REMARK   19  A    between atoms: _45  and  _47
REMARK   20  A    between atoms: _47  and  _48
REMARK   21  A    between atoms: _47  and  _50
REMARK   22  A    between atoms: _50  and  _51
REMARK   23  A    between atoms: _54  and  _56
REMARK   24  A    between atoms: _56  and  _57
REMARK   25  A    between atoms: _59  and  _61
REMARK   26  A    between atoms: _61  and  _62
REMARK   27  A    between atoms: _65  and  _67
REMARK   28  A    between atoms: _67  and  _68
REMARK   29  A    between atoms: _67  and  _70
REMARK   30  A    between atoms: _70  and  _71
REMARK   31  A    between atoms: _74  and  _76
REMARK   32  A    between atoms: _76  and  _77
REMARK   33  A    between atoms: _76  and  _79
REMARK   34  A    between atoms: _79  and  _80
REMARK   35  A    between atoms: _83  and  _85
REMARK   36  A    between atoms: _85  and  _86
REMARK   37  A    between atoms: _85  and  _88
REMARK   38  A    between atoms: _88  and  _89
REMARK   39  A    between atoms: _92  and  _94
REMARK   40  A    between atoms: _94  and  _95
REMARK   41  A    between atoms: _94  and  _97
REMARK   42  A    between atoms: _100  and  _102
REMARK   43  A    between atoms: _102  and  _103
REMARK   44  A    between atoms: _102  and  _105
REMARK   45  A    between atoms: _105  and  _106
REMARK   46  A    between atoms: _106  and  _107
REMARK   47  A    between atoms: _107  and  _108
REMARK   48  A    between atoms: _108  and  _109
REMARK   49  A    between atoms: _113  and  _115
REMARK   50  A    between atoms: _115  and  _116
REMARK   51  A    between atoms: _115  and  _118
REMARK   52  A    between atoms: _118  and  _119
REMARK   53  A    between atoms: _119  and  _120
REMARK   54  A    between atoms: _122  and  _124
REMARK   55  A    between atoms: _124  and  _125
REMARK   56  A    between atoms: _124  and  _127
REMARK   57  A    between atoms: _127  and  _128
REMARK   58  A    between atoms: _131  and  _133
REMARK   59  A    between atoms: _133  and  _134
REMARK   60  A    between atoms: _136  and  _138
REMARK   61  A    between atoms: _138  and  _139
REMARK   62  A    between atoms: _141  and  _143
REMARK   63  A    between atoms: _143  and  _144
REMARK   64  A    between atoms: _143  and  _146
REMARK   65  A    between atoms: _146  and  _147
REMARK   66  A    between atoms: _150  and  _152
REMARK   67  A    between atoms: _152  and  _153
REMARK   68  A    between atoms: _155  and  _157
REMARK   69  A    between atoms: _157  and  _158
REMARK   70  A    between atoms: _160  and  _162
REMARK   71  A    between atoms: _162  and  _163
REMARK   72  A    between atoms: _162  and  _165
REMARK   73  A    between atoms: _165  and  _166
REMARK   74  A    between atoms: _172  and  _174
REMARK   75  A    between atoms: _174  and  _175
REMARK   76  A    between atoms: _174  and  _177
REMARK   77  A    between atoms: _177  and  _178
REMARK   78  A    between atoms: _181  and  _183
REMARK   79  A    between atoms: _183  and  _184
REMARK   80  A    between atoms: _183  and  _186
REMARK   81  A    between atoms: _189  and  _191
REMARK   82  A    between atoms: _191  and  _192
REMARK   83  A    between atoms: _191  and  _194
REMARK   84  A    between atoms: _194  and  _195
REMARK   85  A    between atoms: _198  and  _200
REMARK   86  A    between atoms: _200  and  _201
REMARK   87  A    between atoms: _200  and  _203
REMARK   88  A    between atoms: _203  and  _204
REMARK   89  A    between atoms: _208  and  _209
REMARK   90  A    between atoms: _214  and  _216
REMARK   91  A    between atoms: _216  and  _217
REMARK   92  A    between atoms: _220  and  _222
REMARK   93  A    between atoms: _222  and  _223
REMARK   94  A    between atoms: _222  and  _225
REMARK   95  A    between atoms: _225  and  _226
REMARK   96  A    between atoms: _231  and  _233
REMARK   97  A    between atoms: _233  and  _234
REMARK   98  A    between atoms: _233  and  _236
REMARK   99  A    between atoms: _236  and  _237
REMARK  100  A    between atoms: _240  and  _242
REMARK  101  A    between atoms: _242  and  _243
REMARK  102  A    between atoms: _242  and  _245
REMARK  103  A    between atoms: _245  and  _246
REMARK  104  A    between atoms: _249  and  _251
REMARK  105  A    between atoms: _251  and  _252
REMARK  106  A    between atoms: _254  and  _256
REMARK  107  A    between atoms: _256  and  _257
REMARK  108  A    between atoms: _256  and  _259
REMARK  109  A    between atoms: _259  and  _260
REMARK  110  A    between atoms: _260  and  _261
REMARK  111  A    between atoms: _261  and  _262
REMARK  112  A    between atoms: _271  and  _273
REMARK  113  A    between atoms: _273  and  _274
REMARK  114  A    between atoms: _273  and  _276
REMARK  115  A    between atoms: _276  and  _277
REMARK  116  A    between atoms: _277  and  _278
REMARK  117  A    between atoms: _278  and  _279
REMARK  118  A    between atoms: _288  and  _290
REMARK  119  A    between atoms: _290  and  _291
REMARK  120  A    between atoms: _290  and  _293
REMARK  121  A    between atoms: _293  and  _294
REMARK  122  A    between atoms: _297  and  _299
REMARK  123  A    between atoms: _299  and  _300
REMARK  124  A    between atoms: _299  and  _302
REMARK  125  A    between atoms: _302  and  _303
REMARK  126  A    between atoms: _306  and  _308
REMARK  127  A    between atoms: _308  and  _309
REMARK  128  A    between atoms: _308  and  _311
REMARK  129  A    between atoms: _311  and  _312
REMARK  130  A    between atoms: _315  and  _317
REMARK  131  A    between atoms: _317  and  _318
REMARK  132  A    between atoms: _317  and  _320
REMARK  133  A    between atoms: _320  and  _321
REMARK  134  A    between atoms: _324  and  _326
REMARK  135  A    between atoms: _326  and  _327
REMARK  136  A    between atoms: _329  and  _331
REMARK  137  A    between atoms: _331  and  _332
REMARK  138  A    between atoms: _335  and  _337
REMARK  139  A    between atoms: _337  and  _338
REMARK  140  A    between atoms: _337  and  _340
REMARK  141  A    between atoms: _340  and  _341
REMARK  142  A    between atoms: _344  and  _346
REMARK  143  A    between atoms: _346  and  _347
REMARK  144  A    between atoms: _346  and  _349
REMARK  145  A    between atoms: _349  and  _350
REMARK  146  A    between atoms: _353  and  _355
REMARK  147  A    between atoms: _355  and  _356
REMARK  148  A    between atoms: _355  and  _358
REMARK  149  A    between atoms: _358  and  _359
REMARK  150  A    between atoms: _362  and  _364
REMARK  151  A    between atoms: _364  and  _365
REMARK  152  A    between atoms: _364  and  _367
REMARK  153  A    between atoms: _370  and  _372
REMARK  154  A    between atoms: _372  and  _373
REMARK  155  A    between atoms: _372  and  _375
REMARK  156  A    between atoms: _375  and  _376
REMARK  157  A    between atoms: _379  and  _381
REMARK  158  A    between atoms: _381  and  _382
REMARK  159  A    between atoms: _384  and  _386
REMARK  160  A    between atoms: _386  and  _387
REMARK  161  A    between atoms: _389  and  _391
REMARK  162  A    between atoms: _391  and  _392
REMARK  163  A    between atoms: _391  and  _394
REMARK  164  A    between atoms: _394  and  _395
REMARK  165  A    between atoms: _398  and  _400
REMARK  166  A    between atoms: _400  and  _401
REMARK  167  A    between atoms: _403  and  _405
REMARK  168  A    between atoms: _405  and  _406
REMARK  169  A    between atoms: _408  and  _410
REMARK  170  A    between atoms: _410  and  _411
REMARK  171  A    between atoms: _410  and  _413
REMARK  172  A    between atoms: _413  and  _414
REMARK  173  A    between atoms: _417  and  _419
REMARK  174  A    between atoms: _419  and  _420
REMARK  175  A    between atoms: _419  and  _422
REMARK  176  A    between atoms: _422  and  _423
REMARK  177  A    between atoms: _427  and  _428
REMARK  178  A    between atoms: _433  and  _435
REMARK  179  A    between atoms: _435  and  _436
REMARK  180  A    between atoms: _439  and  _441
REMARK  181  A    between atoms: _441  and  _442
REMARK  182  A    between atoms: _441  and  _444
REMARK  183  A    between atoms: _444  and  _445
REMARK  184  A    between atoms: _450  and  _452
REMARK  185  A    between atoms: _452  and  _453
REMARK  186  A    between atoms: _452  and  _455
REMARK  187  A    between atoms: _455  and  _456
REMARK  188  A    between atoms: _459  and  _461
REMARK  189  A    between atoms: _461  and  _462
REMARK  190  A    between atoms: _461  and  _464
REMARK  191  A    between atoms: _464  and  _465
REMARK  192  A    between atoms: _468  and  _470
REMARK  193  A    between atoms: _470  and  _471
REMARK  194  A    between atoms: _473  and  _475
REMARK  195  A    between atoms: _475  and  _476
REMARK  196  A    between atoms: _475  and  _478
REMARK  197  A    between atoms: _478  and  _479
REMARK  198  A    between atoms: _479  and  _480
REMARK  199  A    between atoms: _480  and  _481
REMARK  200  A    between atoms: _490  and  _492
REMARK  201  A    between atoms: _492  and  _493
REMARK  202  A    between atoms: _492  and  _495
REMARK  203  A    between atoms: _495  and  _496
REMARK                            x       y       z     vdW  Elec       q    Type
REMARK                         _______ _______ _______ _____ _____    ______ ____
ROOT
ATOM      1  O   HOH     1      17.224  22.412  11.728  0.00  0.00    +0.000 OA
ENDROOT
TORSDOF 0
REMARK  Name = ../refined-set-2016/2idw/2idw_pocket.pdb
REMARK  203 active torsions:
REMARK  status: ('A' for Active; 'I' for Inactive)
REMARK    1  A    between atoms: _1  and  _3
REMARK    2  A    between atoms: _3  and  _4
REMARK    3  A    between atoms: _3  and  _6
REMARK    4  A    between atoms: _6  and  _7
REMARK    5  A    between atoms: _7  and  _8
REMARK    6  A    between atoms: _8  and  _9
REMARK    7  A    between atoms: _18  and  _20
REMARK    8  A    between atoms: _20  and  _21
REMARK    9  A    between atoms: _20  and  _23
REMARK   10  A    between atoms: _23  and  _24
REMARK   11  A    between atoms: _27  and  _29
REMARK   12  A    between atoms: _29  and  _30
REMARK   13  A    between atoms: _29  and  _32
REMARK   14  A    between atoms: _32  and  _33
REMARK   15  A    between atoms: _36  and  _38
REMARK   16  A    between atoms: _38  and  _39
REMARK   17  A    between atoms: _38  and  _41
REMARK   18  A    between atoms: _41  and  _42
REMARK   19  A    between atoms: _45  and  _47
REMARK   20  A    between atoms: _47  and  _48
REMARK   21  A    between atoms: _47  and  _50
REMARK   22  A    between atoms: _50  and  _51
REMARK   23  A    between atoms: _54  and  _56
REMARK   24  A    between atoms: _56  and  _57
REMARK   25  A    between atoms: _59  and  _61
REMARK   26  A    between atoms: _61  and  _62
REMARK   27  A    between atoms: _65  and  _67
REMARK   28  A    between atoms: _67  and  _68
REMARK   29  A    between atoms: _67  and  _70
REMARK   30  A    between atoms: _70  and  _71
REMARK   31  A    between atoms: _74  and  _76
REMARK   32  A    between atoms: _76  and  _77
REMARK   33  A    between atoms: _76  and  _79
REMARK   34  A    between atoms: _79  and  _80
REMARK   35  A    between atoms: _83  and  _85
REMARK   36  A    between atoms: _85  and  _86
REMARK   37  A    between atoms: _85  and  _88
REMARK   38  A    between atoms: _88  and  _89
REMARK   39  A    between atoms: _92  and  _94
REMARK   40  A    between atoms: _94  and  _95
REMARK   41  A    between atoms: _94  and  _97
REMARK   42  A    between atoms: _100  and  _102
REMARK   43  A    between atoms: _102  and  _103
REMARK   44  A    between atoms: _102  and  _105
REMARK   45  A    between atoms: _105  and  _106
REMARK   46  A    between atoms: _106  and  _107
REMARK   47  A    between atoms: _107  and  _108
REMARK   48  A    between atoms: _108  and  _109
REMARK   49  A    between atoms: _113  and  _115
REMARK   50  A    between atoms: _115  and  _116
REMARK   51  A    between atoms: _115  and  _118
REMARK   52  A    between atoms: _118  and  _119
REMARK   53  A    between atoms: _119  and  _120
REMARK   54  A    between atoms: _122  and  _124
REMARK   55  A    between atoms: _124  and  _125
REMARK   56  A    between atoms: _124  and  _127
REMARK   57  A    between atoms: _127  and  _128
REMARK   58  A    between atoms: _131  and  _133
REMARK   59  A    between atoms: _133  and  _134
REMARK   60  A    between atoms: _136  and  _138
REMARK   61  A    between atoms: _138  and  _139
REMARK   62  A    between atoms: _141  and  _143
REMARK   63  A    between atoms: _143  and  _144
REMARK   64  A    between atoms: _143  and  _146
REMARK   65  A    between atoms: _146  and  _147
REMARK   66  A    between atoms: _150  and  _152
REMARK   67  A    between atoms: _152  and  _153
REMARK   68  A    between atoms: _155  and  _157
REMARK   69  A    between atoms: _157  and  _158
REMARK   70  A    between atoms: _160  and  _162
REMARK   71  A    between atoms: _162  and  _163
REMARK   72  A    between atoms: _162  and  _165
REMARK   73  A    between atoms: _165  and  _166
REMARK   74  A    between atoms: _172  and  _174
REMARK   75  A    between atoms: _174  and  _175
REMARK   76  A    between atoms: _174  and  _177
REMARK   77  A    between atoms: _177  and  _178
REMARK   78  A    between atoms: _181  and  _183
REMARK   79  A    between atoms: _183  and  _184
REMARK   80  A    between atoms: _183  and  _186
REMARK   81  A    between atoms: _189  and  _191
REMARK   82  A    between atoms: _191  and  _192
REMARK   83  A    between atoms: _191  and  _194
REMARK   84  A    between atoms: _194  and  _195
REMARK   85  A    between atoms: _198  and  _200
REMARK   86  A    between atoms: _200  and  _201
REMARK   87  A    between atoms: _200  and  _203
REMARK   88  A    between atoms: _203  and  _204
REMARK   89  A    between atoms: _208  and  _209
REMARK   90  A    between atoms: _214  and  _216
REMARK   91  A    between atoms: _216  and  _217
REMARK   92  A    between atoms: _220  and  _222
REMARK   93  A    between atoms: _222  and  _223
REMARK   94  A    between atoms: _222  and  _225
REMARK   95  A    between atoms: _225  and  _226
REMARK   96  A    between atoms: _231  and  _233
REMARK   97  A    between atoms: _233  and  _234
REMARK   98  A    between atoms: _233  and  _236
REMARK   99  A    between atoms: _236  and  _237
REMARK  100  A    between atoms: _240  and  _242
REMARK  101  A    between atoms: _242  and  _243
REMARK  102  A    between atoms: _242  and  _245
REMARK  103  A    between atoms: _245  and  _246
REMARK  104  A    between atoms: _249  and  _251
REMARK  105  A    between atoms: _251  and  _252
REMARK  106  A    between atoms: _254  and  _256
REMARK  107  A    between atoms: _256  and  _257
REMARK  108  A    between atoms: _256  and  _259
REMARK  109  A    between atoms: _259  and  _260
REMARK  110  A    between atoms: _260  and  _261
REMARK  111  A    between atoms: _261  and  _262
REMARK  112  A    between atoms: _271  and  _273
REMARK  113  A    between atoms: _273  and  _274
REMARK  114  A    between atoms: _273  and  _276
REMARK  115  A    between atoms: _276  and  _277
REMARK  116  A    between atoms: _277  and  _278
REMARK  117  A    between atoms: _278  and  _279
REMARK  118  A    between atoms: _288  and  _290
REMARK  119  A    between atoms: _290  and  _291
REMARK  120  A    between atoms: _290  and  _293
REMARK  121  A    between atoms: _293  and  _294
REMARK  122  A    between atoms: _297  and  _299
REMARK  123  A    between atoms: _299  and  _300
REMARK  124  A    between atoms: _299  and  _302
REMARK  125  A    between atoms: _302  and  _303
REMARK  126  A    between atoms: _306  and  _308
REMARK  127  A    between atoms: _308  and  _309
REMARK  128  A    between atoms: _308  and  _311
REMARK  129  A    between atoms: _311  and  _312
REMARK  130  A    between atoms: _315  and  _317
REMARK  131  A    between atoms: _317  and  _318
REMARK  132  A    between atoms: _317  and  _320
REMARK  133  A    between atoms: _320  and  _321
REMARK  134  A    between atoms: _324  and  _326
REMARK  135  A    between atoms: _326  and  _327
REMARK  136  A    between atoms: _329  and  _331
REMARK  137  A    between atoms: _331  and  _332
REMARK  138  A    between atoms: _335  and  _337
REMARK  139  A    between atoms: _337  and  _338
REMARK  140  A    between atoms: _337  and  _340
REMARK  141  A    between atoms: _340  and  _341
REMARK  142  A    between atoms: _344  and  _346
REMARK  143  A    between atoms: _346  and  _347
REMARK  144  A    between atoms: _346  and  _349
REMARK  145  A    between atoms: _349  and  _350
REMARK  146  A    between atoms: _353  and  _355
REMARK  147  A    between atoms: _355  and  _356
REMARK  148  A    between atoms: _355  and  _358
REMARK  149  A    between atoms: _358  and  _359
REMARK  150  A    between atoms: _362  and  _364
REMARK  151  A    between atoms: _364  and  _365
REMARK  152  A    between atoms: _364  and  _367
REMARK  153  A    between atoms: _370  and  _372
REMARK  154  A    between atoms: _372  and  _373
REMARK  155  A    between atoms: _372  and  _375
REMARK  156  A    between atoms: _375  and  _376
REMARK  157  A    between atoms: _379  and  _381
REMARK  158  A    between atoms: _381  and  _382
REMARK  159  A    between atoms: _384  and  _386
REMARK  160  A    between atoms: _386  and  _387
REMARK  161  A    between atoms: _389  and  _391
REMARK  162  A    between atoms: _391  and  _392
REMARK  163  A    between atoms: _391  and  _394
REMARK  164  A    between atoms: _394  and  _395
REMARK  165  A    between atoms: _398  and  _400
REMARK  166  A    between atoms: _400  and  _401
REMARK  167  A    between atoms: _403  and  _405
REMARK  168  A    between atoms: _405  and  _406
REMARK  169  A    between atoms: _408  and  _410
REMARK  170  A    between atoms: _410  and  _411
REMARK  171  A    between atoms: _410  and  _413
REMARK  172  A    between atoms: _413  and  _414
REMARK  173  A    between atoms: _417  and  _419
REMARK  174  A    between atoms: _419  and  _420
REMARK  175  A    between atoms: _419  and  _422
REMARK  176  A    between atoms: _422  and  _423
REMARK  177  A    between atoms: _427  and  _428
REMARK  178  A    between atoms: _433  and  _435
REMARK  179  A    between atoms: _435  and  _436
REMARK  180  A    between atoms: _439  and  _441
REMARK  181  A    between atoms: _441  and  _442
REMARK  182  A    between atoms: _441  and  _444
REMARK  183  A    between atoms: _444  and  _445
REMARK  184  A    between atoms: _450  and  _452
REMARK  185  A    between atoms: _452  and  _453
REMARK  186  A    between atoms: _452  and  _455
REMARK  187  A    between atoms: _455  and  _456
REMARK  188  A    between atoms: _459  and  _461
REMARK  189  A    between atoms: _461  and  _462
REMARK  190  A    between atoms: _461  and  _464
REMARK  191  A    between atoms: _464  and  _465
REMARK  192  A    between atoms: _468  and  _470
REMARK  193  A    between atoms: _470  and  _471
REMARK  194  A    between atoms: _473  and  _475
REMARK  195  A    between atoms: _475  and  _476
REMARK  196  A    between atoms: _475  and  _478
REMARK  197  A    between atoms: _478  and  _479
REMARK  198  A    between atoms: _479  and  _480
REMARK  199  A    between atoms: _480  and  _481
REMARK  200  A    between atoms: _490  and  _492
REMARK  201  A    between atoms: _492  and  _493
REMARK  202  A    between atoms: _492  and  _495
REMARK  203  A    between atoms: _495  and  _496
REMARK                            x       y       z     vdW  Elec       q    Type
REMARK                         _______ _______ _______ _____ _____    ______ ____
ROOT
ATOM      1  O   HOH     1      19.038  21.817  10.135  0.00  0.00    +0.000 OA
ENDROOT
TORSDOF 0
REMARK  Name = ../refined-set-2016/2idw/2idw_pocket.pdb
REMARK  203 active torsions:
REMARK  status: ('A' for Active; 'I' for Inactive)
REMARK    1  A    between atoms: _1  and  _3
REMARK    2  A    between atoms: _3  and  _4
REMARK    3  A    between atoms: _3  and  _6
REMARK    4  A    between atoms: _6  and  _7
REMARK    5  A    between atoms: _7  and  _8
REMARK    6  A    between atoms: _8  and  _9
REMARK    7  A    between atoms: _18  and  _20
REMARK    8  A    between atoms: _20  and  _21
REMARK    9  A    between atoms: _20  and  _23
REMARK   10  A    between atoms: _23  and  _24
REMARK   11  A    between atoms: _27  and  _29
REMARK   12  A    between atoms: _29  and  _30
REMARK   13  A    between atoms: _29  and  _32
REMARK   14  A    between atoms: _32  and  _33
REMARK   15  A    between atoms: _36  and  _38
REMARK   16  A    between atoms: _38  and  _39
REMARK   17  A    between atoms: _38  and  _41
REMARK   18  A    between atoms: _41  and  _42
REMARK   19  A    between atoms: _45  and  _47
REMARK   20  A    between atoms: _47  and  _48
REMARK   21  A    between atoms: _47  and  _50
REMARK   22  A    between atoms: _50  and  _51
REMARK   23  A    between atoms: _54  and  _56
REMARK   24  A    between atoms: _56  and  _57
REMARK   25  A    between atoms: _59  and  _61
REMARK   26  A    between atoms: _61  and  _62
REMARK   27  A    between atoms: _65  and  _67
REMARK   28  A    between atoms: _67  and  _68
REMARK   29  A    between atoms: _67  and  _70
REMARK   30  A    between atoms: _70  and  _71
REMARK   31  A    between atoms: _74  and  _76
REMARK   32  A    between atoms: _76  and  _77
REMARK   33  A    between atoms: _76  and  _79
REMARK   34  A    between atoms: _79  and  _80
REMARK   35  A    between atoms: _83  and  _85
REMARK   36  A    between atoms: _85  and  _86
REMARK   37  A    between atoms: _85  and  _88
REMARK   38  A    between atoms: _88  and  _89
REMARK   39  A    between atoms: _92  and  _94
REMARK   40  A    between atoms: _94  and  _95
REMARK   41  A    between atoms: _94  and  _97
REMARK   42  A    between atoms: _100  and  _102
REMARK   43  A    between atoms: _102  and  _103
REMARK   44  A    between atoms: _102  and  _105
REMARK   45  A    between atoms: _105  and  _106
REMARK   46  A    between atoms: _106  and  _107
REMARK   47  A    between atoms: _107  and  _108
REMARK   48  A    between atoms: _108  and  _109
REMARK   49  A    between atoms: _113  and  _115
REMARK   50  A    between atoms: _115  and  _116
REMARK   51  A    between atoms: _115  and  _118
REMARK   52  A    between atoms: _118  and  _119
REMARK   53  A    between atoms: _119  and  _120
REMARK   54  A    between atoms: _122  and  _124
REMARK   55  A    between atoms: _124  and  _125
REMARK   56  A    between atoms: _124  and  _127
REMARK   57  A    between atoms: _127  and  _128
REMARK   58  A    between atoms: _131  and  _133
REMARK   59  A    between atoms: _133  and  _134
REMARK   60  A    between atoms: _136  and  _138
REMARK   61  A    between atoms: _138  and  _139
REMARK   62  A    between atoms: _141  and  _143
REMARK   63  A    between atoms: _143  and  _144
REMARK   64  A    between atoms: _143  and  _146
REMARK   65  A    between atoms: _146  and  _147
REMARK   66  A    between atoms: _150  and  _152
REMARK   67  A    between atoms: _152  and  _153
REMARK   68  A    between atoms: _155  and  _157
REMARK   69  A    between atoms: _157  and  _158
REMARK   70  A    between atoms: _160  and  _162
REMARK   71  A    between atoms: _162  and  _163
REMARK   72  A    between atoms: _162  and  _165
REMARK   73  A    between atoms: _165  and  _166
REMARK   74  A    between atoms: _172  and  _174
REMARK   75  A    between atoms: _174  and  _175
REMARK   76  A    between atoms: _174  and  _177
REMARK   77  A    between atoms: _177  and  _178
REMARK   78  A    between atoms: _181  and  _183
REMARK   79  A    between atoms: _183  and  _184
REMARK   80  A    between atoms: _183  and  _186
REMARK   81  A    between atoms: _189  and  _191
REMARK   82  A    between atoms: _191  and  _192
REMARK   83  A    between atoms: _191  and  _194
REMARK   84  A    between atoms: _194  and  _195
REMARK   85  A    between atoms: _198  and  _200
REMARK   86  A    between atoms: _200  and  _201
REMARK   87  A    between atoms: _200  and  _203
REMARK   88  A    between atoms: _203  and  _204
REMARK   89  A    between atoms: _208  and  _209
REMARK   90  A    between atoms: _214  and  _216
REMARK   91  A    between atoms: _216  and  _217
REMARK   92  A    between atoms: _220  and  _222
REMARK   93  A    between atoms: _222  and  _223
REMARK   94  A    between atoms: _222  and  _225
REMARK   95  A    between atoms: _225  and  _226
REMARK   96  A    between atoms: _231  and  _233
REMARK   97  A    between atoms: _233  and  _234
REMARK   98  A    between atoms: _233  and  _236
REMARK   99  A    between atoms: _236  and  _237
REMARK  100  A    between atoms: _240  and  _242
REMARK  101  A    between atoms: _242  and  _243
REMARK  102  A    between atoms: _242  and  _245
REMARK  103  A    between atoms: _245  and  _246
REMARK  104  A    between atoms: _249  and  _251
REMARK  105  A    between atoms: _251  and  _252
REMARK  106  A    between atoms: _254  and  _256
REMARK  107  A    between atoms: _256  and  _257
REMARK  108  A    between atoms: _256  and  _259
REMARK  109  A    between atoms: _259  and  _260
REMARK  110  A    between atoms: _260  and  _261
REMARK  111  A    between atoms: _261  and  _262
REMARK  112  A    between atoms: _271  and  _273
REMARK  113  A    between atoms: _273  and  _274
REMARK  114  A    between atoms: _273  and  _276
REMARK  115  A    between atoms: _276  and  _277
REMARK  116  A    between atoms: _277  and  _278
REMARK  117  A    between atoms: _278  and  _279
REMARK  118  A    between atoms: _288  and  _290
REMARK  119  A    between atoms: _290  and  _291
REMARK  120  A    between atoms: _290  and  _293
REMARK  121  A    between atoms: _293  and  _294
REMARK  122  A    between atoms: _297  and  _299
REMARK  123  A    between atoms: _299  and  _300
REMARK  124  A    between atoms: _299  and  _302
REMARK  125  A    between atoms: _302  and  _303
REMARK  126  A    between atoms: _306  and  _308
REMARK  127  A    between atoms: _308  and  _309
REMARK  128  A    between atoms: _308  and  _311
REMARK  129  A    between atoms: _311  and  _312
REMARK  130  A    between atoms: _315  and  _317
REMARK  131  A    between atoms: _317  and  _318
REMARK  132  A    between atoms: _317  and  _320
REMARK  133  A    between atoms: _320  and  _321
REMARK  134  A    between atoms: _324  and  _326
REMARK  135  A    between atoms: _326  and  _327
REMARK  136  A    between atoms: _329  and  _331
REMARK  137  A    between atoms: _331  and  _332
REMARK  138  A    between atoms: _335  and  _337
REMARK  139  A    between atoms: _337  and  _338
REMARK  140  A    between atoms: _337  and  _340
REMARK  141  A    between atoms: _340  and  _341
REMARK  142  A    between atoms: _344  and  _346
REMARK  143  A    between atoms: _346  and  _347
REMARK  144  A    between atoms: _346  and  _349
REMARK  145  A    between atoms: _349  and  _350
REMARK  146  A    between atoms: _353  and  _355
REMARK  147  A    between atoms: _355  and  _356
REMARK  148  A    between atoms: _355  and  _358
REMARK  149  A    between atoms: _358  and  _359
REMARK  150  A    between atoms: _362  and  _364
REMARK  151  A    between atoms: _364  and  _365
REMARK  152  A    between atoms: _364  and  _367
REMARK  153  A    between atoms: _370  and  _372
REMARK  154  A    between atoms: _372  and  _373
REMARK  155  A    between atoms: _372  and  _375
REMARK  156  A    between atoms: _375  and  _376
REMARK  157  A    between atoms: _379  and  _381
REMARK  158  A    between atoms: _381  and  _382
REMARK  159  A    between atoms: _384  and  _386
REMARK  160  A    between atoms: _386  and  _387
REMARK  161  A    between atoms: _389  and  _391
REMARK  162  A    between atoms: _391  and  _392
REMARK  163  A    between atoms: _391  and  _394
REMARK  164  A    between atoms: _394  and  _395
REMARK  165  A    between atoms: _398  and  _400
REMARK  166  A    between atoms: _400  and  _401
REMARK  167  A    between atoms: _403  and  _405
REMARK  168  A    between atoms: _405  and  _406
REMARK  169  A    between atoms: _408  and  _410
REMARK  170  A    between atoms: _410  and  _411
REMARK  171  A    between atoms: _410  and  _413
REMARK  172  A    between atoms: _413  and  _414
REMARK  173  A    between atoms: _417  and  _419
REMARK  174  A    between atoms: _419  and  _420
REMARK  175  A    between atoms: _419  and  _422
REMARK  176  A    between atoms: _422  and  _423
REMARK  177  A    between atoms: _427  and  _428
REMARK  178  A    between atoms: _433  and  _435
REMARK  179  A    between atoms: _435  and  _436
REMARK  180  A    between atoms: _439  and  _441
REMARK  181  A    between atoms: _441  and  _442
REMARK  182  A    between atoms: _441  and  _444
REMARK  183  A    between atoms: _444  and  _445
REMARK  184  A    between atoms: _450  and  _452
REMARK  185  A    between atoms: _452  and  _453
REMARK  186  A    between atoms: _452  and  _455
REMARK  187  A    between atoms: _455  and  _456
REMARK  188  A    between atoms: _459  and  _461
REMARK  189  A    between atoms: _461  and  _462
REMARK  190  A    between atoms: _461  and  _464
REMARK  191  A    between atoms: _464  and  _465
REMARK  192  A    between atoms: _468  and  _470
REMARK  193  A    between atoms: _470  and  _471
REMARK  194  A    between atoms: _473  and  _475
REMARK  195  A    between atoms: _475  and  _476
REMARK  196  A    between atoms: _475  and  _478
REMARK  197  A    between atoms: _478  and  _479
REMARK  198  A    between atoms: _479  and  _480
REMARK  199  A    between atoms: _480  and  _481
REMARK  200  A    between atoms: _490  and  _492
REMARK  201  A    between atoms: _492  and  _493
REMARK  202  A    between atoms: _492  and  _495
REMARK  203  A    between atoms: _495  and  _496
REMARK                            x       y       z     vdW  Elec       q    Type
REMARK                         _______ _______ _______ _____ _____    ______ ____
ROOT
ATOM      1  O   HOH     1      10.582  36.394  23.535  0.00  0.00    +0.000 OA
ENDROOT
TORSDOF 0
REMARK  Name = ../refined-set-2016/2idw/2idw_pocket.pdb
REMARK  203 active torsions:
REMARK  status: ('A' for Active; 'I' for Inactive)
REMARK    1  A    between atoms: _1  and  _3
REMARK    2  A    between atoms: _3  and  _4
REMARK    3  A    between atoms: _3  and  _6
REMARK    4  A    between atoms: _6  and  _7
REMARK    5  A    between atoms: _7  and  _8
REMARK    6  A    between atoms: _8  and  _9
REMARK    7  A    between atoms: _18  and  _20
REMARK    8  A    between atoms: _20  and  _21
REMARK    9  A    between atoms: _20  and  _23
REMARK   10  A    between atoms: _23  and  _24
REMARK   11  A    between atoms: _27  and  _29
REMARK   12  A    between atoms: _29  and  _30
REMARK   13  A    between atoms: _29  and  _32
REMARK   14  A    between atoms: _32  and  _33
REMARK   15  A    between atoms: _36  and  _38
REMARK   16  A    between atoms: _38  and  _39
REMARK   17  A    between atoms: _38  and  _41
REMARK   18  A    between atoms: _41  and  _42
REMARK   19  A    between atoms: _45  and  _47
REMARK   20  A    between atoms: _47  and  _48
REMARK   21  A    between atoms: _47  and  _50
REMARK   22  A    between atoms: _50  and  _51
REMARK   23  A    between atoms: _54  and  _56
REMARK   24  A    between atoms: _56  and  _57
REMARK   25  A    between atoms: _59  and  _61
REMARK   26  A    between atoms: _61  and  _62
REMARK   27  A    between atoms: _65  and  _67
REMARK   28  A    between atoms: _67  and  _68
REMARK   29  A    between atoms: _67  and  _70
REMARK   30  A    between atoms: _70  and  _71
REMARK   31  A    between atoms: _74  and  _76
REMARK   32  A    between atoms: _76  and  _77
REMARK   33  A    between atoms: _76  and  _79
REMARK   34  A    between atoms: _79  and  _80
REMARK   35  A    between atoms: _83  and  _85
REMARK   36  A    between atoms: _85  and  _86
REMARK   37  A    between atoms: _85  and  _88
REMARK   38  A    between atoms: _88  and  _89
REMARK   39  A    between atoms: _92  and  _94
REMARK   40  A    between atoms: _94  and  _95
REMARK   41  A    between atoms: _94  and  _97
REMARK   42  A    between atoms: _100  and  _102
REMARK   43  A    between atoms: _102  and  _103
REMARK   44  A    between atoms: _102  and  _105
REMARK   45  A    between atoms: _105  and  _106
REMARK   46  A    between atoms: _106  and  _107
REMARK   47  A    between atoms: _107  and  _108
REMARK   48  A    between atoms: _108  and  _109
REMARK   49  A    between atoms: _113  and  _115
REMARK   50  A    between atoms: _115  and  _116
REMARK   51  A    between atoms: _115  and  _118
REMARK   52  A    between atoms: _118  and  _119
REMARK   53  A    between atoms: _119  and  _120
REMARK   54  A    between atoms: _122  and  _124
REMARK   55  A    between atoms: _124  and  _125
REMARK   56  A    between atoms: _124  and  _127
REMARK   57  A    between atoms: _127  and  _128
REMARK   58  A    between atoms: _131  and  _133
REMARK   59  A    between atoms: _133  and  _134
REMARK   60  A    between atoms: _136  and  _138
REMARK   61  A    between atoms: _138  and  _139
REMARK   62  A    between atoms: _141  and  _143
REMARK   63  A    between atoms: _143  and  _144
REMARK   64  A    between atoms: _143  and  _146
REMARK   65  A    between atoms: _146  and  _147
REMARK   66  A    between atoms: _150  and  _152
REMARK   67  A    between atoms: _152  and  _153
REMARK   68  A    between atoms: _155  and  _157
REMARK   69  A    between atoms: _157  and  _158
REMARK   70  A    between atoms: _160  and  _162
REMARK   71  A    between atoms: _162  and  _163
REMARK   72  A    between atoms: _162  and  _165
REMARK   73  A    between atoms: _165  and  _166
REMARK   74  A    between atoms: _172  and  _174
REMARK   75  A    between atoms: _174  and  _175
REMARK   76  A    between atoms: _174  and  _177
REMARK   77  A    between atoms: _177  and  _178
REMARK   78  A    between atoms: _181  and  _183
REMARK   79  A    between atoms: _183  and  _184
REMARK   80  A    between atoms: _183  and  _186
REMARK   81  A    between atoms: _189  and  _191
REMARK   82  A    between atoms: _191  and  _192
REMARK   83  A    between atoms: _191  and  _194
REMARK   84  A    between atoms: _194  and  _195
REMARK   85  A    between atoms: _198  and  _200
REMARK   86  A    between atoms: _200  and  _201
REMARK   87  A    between atoms: _200  and  _203
REMARK   88  A    between atoms: _203  and  _204
REMARK   89  A    between atoms: _208  and  _209
REMARK   90  A    between atoms: _214  and  _216
REMARK   91  A    between atoms: _216  and  _217
REMARK   92  A    between atoms: _220  and  _222
REMARK   93  A    between atoms: _222  and  _223
REMARK   94  A    between atoms: _222  and  _225
REMARK   95  A    between atoms: _225  and  _226
REMARK   96  A    between atoms: _231  and  _233
REMARK   97  A    between atoms: _233  and  _234
REMARK   98  A    between atoms: _233  and  _236
REMARK   99  A    between atoms: _236  and  _237
REMARK  100  A    between atoms: _240  and  _242
REMARK  101  A    between atoms: _242  and  _243
REMARK  102  A    between atoms: _242  and  _245
REMARK  103  A    between atoms: _245  and  _246
REMARK  104  A    between atoms: _249  and  _251
REMARK  105  A    between atoms: _251  and  _252
REMARK  106  A    between atoms: _254  and  _256
REMARK  107  A    between atoms: _256  and  _257
REMARK  108  A    between atoms: _256  and  _259
REMARK  109  A    between atoms: _259  and  _260
REMARK  110  A    between atoms: _260  and  _261
REMARK  111  A    between atoms: _261  and  _262
REMARK  112  A    between atoms: _271  and  _273
REMARK  113  A    between atoms: _273  and  _274
REMARK  114  A    between atoms: _273  and  _276
REMARK  115  A    between atoms: _276  and  _277
REMARK  116  A    between atoms: _277  and  _278
REMARK  117  A    between atoms: _278  and  _279
REMARK  118  A    between atoms: _288  and  _290
REMARK  119  A    between atoms: _290  and  _291
REMARK  120  A    between atoms: _290  and  _293
REMARK  121  A    between atoms: _293  and  _294
REMARK  122  A    between atoms: _297  and  _299
REMARK  123  A    between atoms: _299  and  _300
REMARK  124  A    between atoms: _299  and  _302
REMARK  125  A    between atoms: _302  and  _303
REMARK  126  A    between atoms: _306  and  _308
REMARK  127  A    between atoms: _308  and  _309
REMARK  128  A    between atoms: _308  and  _311
REMARK  129  A    between atoms: _311  and  _312
REMARK  130  A    between atoms: _315  and  _317
REMARK  131  A    between atoms: _317  and  _318
REMARK  132  A    between atoms: _317  and  _320
REMARK  133  A    between atoms: _320  and  _321
REMARK  134  A    between atoms: _324  and  _326
REMARK  135  A    between atoms: _326  and  _327
REMARK  136  A    between atoms: _329  and  _331
REMARK  137  A    between atoms: _331  and  _332
REMARK  138  A    between atoms: _335  and  _337
REMARK  139  A    between atoms: _337  and  _338
REMARK  140  A    between atoms: _337  and  _340
REMARK  141  A    between atoms: _340  and  _341
REMARK  142  A    between atoms: _344  and  _346
REMARK  143  A    between atoms: _346  and  _347
REMARK  144  A    between atoms: _346  and  _349
REMARK  145  A    between atoms: _349  and  _350
REMARK  146  A    between atoms: _353  and  _355
REMARK  147  A    between atoms: _355  and  _356
REMARK  148  A    between atoms: _355  and  _358
REMARK  149  A    between atoms: _358  and  _359
REMARK  150  A    between atoms: _362  and  _364
REMARK  151  A    between atoms: _364  and  _365
REMARK  152  A    between atoms: _364  and  _367
REMARK  153  A    between atoms: _370  and  _372
REMARK  154  A    between atoms: _372  and  _373
REMARK  155  A    between atoms: _372  and  _375
REMARK  156  A    between atoms: _375  and  _376
REMARK  157  A    between atoms: _379  and  _381
REMARK  158  A    between atoms: _381  and  _382
REMARK  159  A    between atoms: _384  and  _386
REMARK  160  A    between atoms: _386  and  _387
REMARK  161  A    between atoms: _389  and  _391
REMARK  162  A    between atoms: _391  and  _392
REMARK  163  A    between atoms: _391  and  _394
REMARK  164  A    between atoms: _394  and  _395
REMARK  165  A    between atoms: _398  and  _400
REMARK  166  A    between atoms: _400  and  _401
REMARK  167  A    between atoms: _403  and  _405
REMARK  168  A    between atoms: _405  and  _406
REMARK  169  A    between atoms: _408  and  _410
REMARK  170  A    between atoms: _410  and  _411
REMARK  171  A    between atoms: _410  and  _413
REMARK  172  A    between atoms: _413  and  _414
REMARK  173  A    between atoms: _417  and  _419
REMARK  174  A    between atoms: _419  and  _420
REMARK  175  A    between atoms: _419  and  _422
REMARK  176  A    between atoms: _422  and  _423
REMARK  177  A    between atoms: _427  and  _428
REMARK  178  A    between atoms: _433  and  _435
REMARK  179  A    between atoms: _435  and  _436
REMARK  180  A    between atoms: _439  and  _441
REMARK  181  A    between atoms: _441  and  _442
REMARK  182  A    between atoms: _441  and  _444
REMARK  183  A    between atoms: _444  and  _445
REMARK  184  A    between atoms: _450  and  _452
REMARK  185  A    between atoms: _452  and  _453
REMARK  186  A    between atoms: _452  and  _455
REMARK  187  A    between atoms: _455  and  _456
REMARK  188  A    between atoms: _459  and  _461
REMARK  189  A    between atoms: _461  and  _462
REMARK  190  A    between atoms: _461  and  _464
REMARK  191  A    between atoms: _464  and  _465
REMARK  192  A    between atoms: _468  and  _470
REMARK  193  A    between atoms: _470  and  _471
REMARK  194  A    between atoms: _473  and  _475
REMARK  195  A    between atoms: _475  and  _476
REMARK  196  A    between atoms: _475  and  _478
REMARK  197  A    between atoms: _478  and  _479
REMARK  198  A    between atoms: _479  and  _480
REMARK  199  A    between atoms: _480  and  _481
REMARK  200  A    between atoms: _490  and  _492
REMARK  201  A    between atoms: _492  and  _493
REMARK  202  A    between atoms: _492  and  _495
REMARK  203  A    between atoms: _495  and  _496
REMARK                            x       y       z     vdW  Elec       q    Type
REMARK                         _______ _______ _______ _____ _____    ______ ____
ROOT
ATOM      1  O   HOH     1       9.943  39.770  21.602  0.00  0.00    +0.000 OA
ENDROOT
TORSDOF 0
REMARK  Name = ../refined-set-2016/2idw/2idw_pocket.pdb
REMARK  203 active torsions:
REMARK  status: ('A' for Active; 'I' for Inactive)
REMARK    1  A    between atoms: _1  and  _3
REMARK    2  A    between atoms: _3  and  _4
REMARK    3  A    between atoms: _3  and  _6
REMARK    4  A    between atoms: _6  and  _7
REMARK    5  A    between atoms: _7  and  _8
REMARK    6  A    between atoms: _8  and  _9
REMARK    7  A    between atoms: _18  and  _20
REMARK    8  A    between atoms: _20  and  _21
REMARK    9  A    between atoms: _20  and  _23
REMARK   10  A    between atoms: _23  and  _24
REMARK   11  A    between atoms: _27  and  _29
REMARK   12  A    between atoms: _29  and  _30
REMARK   13  A    between atoms: _29  and  _32
REMARK   14  A    between atoms: _32  and  _33
REMARK   15  A    between atoms: _36  and  _38
REMARK   16  A    between atoms: _38  and  _39
REMARK   17  A    between atoms: _38  and  _41
REMARK   18  A    between atoms: _41  and  _42
REMARK   19  A    between atoms: _45  and  _47
REMARK   20  A    between atoms: _47  and  _48
REMARK   21  A    between atoms: _47  and  _50
REMARK   22  A    between atoms: _50  and  _51
REMARK   23  A    between atoms: _54  and  _56
REMARK   24  A    between atoms: _56  and  _57
REMARK   25  A    between atoms: _59  and  _61
REMARK   26  A    between atoms: _61  and  _62
REMARK   27  A    between atoms: _65  and  _67
REMARK   28  A    between atoms: _67  and  _68
REMARK   29  A    between atoms: _67  and  _70
REMARK   30  A    between atoms: _70  and  _71
REMARK   31  A    between atoms: _74  and  _76
REMARK   32  A    between atoms: _76  and  _77
REMARK   33  A    between atoms: _76  and  _79
REMARK   34  A    between atoms: _79  and  _80
REMARK   35  A    between atoms: _83  and  _85
REMARK   36  A    between atoms: _85  and  _86
REMARK   37  A    between atoms: _85  and  _88
REMARK   38  A    between atoms: _88  and  _89
REMARK   39  A    between atoms: _92  and  _94
REMARK   40  A    between atoms: _94  and  _95
REMARK   41  A    between atoms: _94  and  _97
REMARK   42  A    between atoms: _100  and  _102
REMARK   43  A    between atoms: _102  and  _103
REMARK   44  A    between atoms: _102  and  _105
REMARK   45  A    between atoms: _105  and  _106
REMARK   46  A    between atoms: _106  and  _107
REMARK   47  A    between atoms: _107  and  _108
REMARK   48  A    between atoms: _108  and  _109
REMARK   49  A    between atoms: _113  and  _115
REMARK   50  A    between atoms: _115  and  _116
REMARK   51  A    between atoms: _115  and  _118
REMARK   52  A    between atoms: _118  and  _119
REMARK   53  A    between atoms: _119  and  _120
REMARK   54  A    between atoms: _122  and  _124
REMARK   55  A    between atoms: _124  and  _125
REMARK   56  A    between atoms: _124  and  _127
REMARK   57  A    between atoms: _127  and  _128
REMARK   58  A    between atoms: _131  and  _133
REMARK   59  A    between atoms: _133  and  _134
REMARK   60  A    between atoms: _136  and  _138
REMARK   61  A    between atoms: _138  and  _139
REMARK   62  A    between atoms: _141  and  _143
REMARK   63  A    between atoms: _143  and  _144
REMARK   64  A    between atoms: _143  and  _146
REMARK   65  A    between atoms: _146  and  _147
REMARK   66  A    between atoms: _150  and  _152
REMARK   67  A    between atoms: _152  and  _153
REMARK   68  A    between atoms: _155  and  _157
REMARK   69  A    between atoms: _157  and  _158
REMARK   70  A    between atoms: _160  and  _162
REMARK   71  A    between atoms: _162  and  _163
REMARK   72  A    between atoms: _162  and  _165
REMARK   73  A    between atoms: _165  and  _166
REMARK   74  A    between atoms: _172  and  _174
REMARK   75  A    between atoms: _174  and  _175
REMARK   76  A    between atoms: _174  and  _177
REMARK   77  A    between atoms: _177  and  _178
REMARK   78  A    between atoms: _181  and  _183
REMARK   79  A    between atoms: _183  and  _184
REMARK   80  A    between atoms: _183  and  _186
REMARK   81  A    between atoms: _189  and  _191
REMARK   82  A    between atoms: _191  and  _192
REMARK   83  A    between atoms: _191  and  _194
REMARK   84  A    between atoms: _194  and  _195
REMARK   85  A    between atoms: _198  and  _200
REMARK   86  A    between atoms: _200  and  _201
REMARK   87  A    between atoms: _200  and  _203
REMARK   88  A    between atoms: _203  and  _204
REMARK   89  A    between atoms: _208  and  _209
REMARK   90  A    between atoms: _214  and  _216
REMARK   91  A    between atoms: _216  and  _217
REMARK   92  A    between atoms: _220  and  _222
REMARK   93  A    between atoms: _222  and  _223
REMARK   94  A    between atoms: _222  and  _225
REMARK   95  A    between atoms: _225  and  _226
REMARK   96  A    between atoms: _231  and  _233
REMARK   97  A    between atoms: _233  and  _234
REMARK   98  A    between atoms: _233  and  _236
REMARK   99  A    between atoms: _236  and  _237
REMARK  100  A    between atoms: _240  and  _242
REMARK  101  A    between atoms: _242  and  _243
REMARK  102  A    between atoms: _242  and  _245
REMARK  103  A    between atoms: _245  and  _246
REMARK  104  A    between atoms: _249  and  _251
REMARK  105  A    between atoms: _251  and  _252
REMARK  106  A    between atoms: _254  and  _256
REMARK  107  A    between atoms: _256  and  _257
REMARK  108  A    between atoms: _256  and  _259
REMARK  109  A    between atoms: _259  and  _260
REMARK  110  A    between atoms: _260  and  _261
REMARK  111  A    between atoms: _261  and  _262
REMARK  112  A    between atoms: _271  and  _273
REMARK  113  A    between atoms: _273  and  _274
REMARK  114  A    between atoms: _273  and  _276
REMARK  115  A    between atoms: _276  and  _277
REMARK  116  A    between atoms: _277  and  _278
REMARK  117  A    between atoms: _278  and  _279
REMARK  118  A    between atoms: _288  and  _290
REMARK  119  A    between atoms: _290  and  _291
REMARK  120  A    between atoms: _290  and  _293
REMARK  121  A    between atoms: _293  and  _294
REMARK  122  A    between atoms: _297  and  _299
REMARK  123  A    between atoms: _299  and  _300
REMARK  124  A    between atoms: _299  and  _302
REMARK  125  A    between atoms: _302  and  _303
REMARK  126  A    between atoms: _306  and  _308
REMARK  127  A    between atoms: _308  and  _309
REMARK  128  A    between atoms: _308  and  _311
REMARK  129  A    between atoms: _311  and  _312
REMARK  130  A    between atoms: _315  and  _317
REMARK  131  A    between atoms: _317  and  _318
REMARK  132  A    between atoms: _317  and  _320
REMARK  133  A    between atoms: _320  and  _321
REMARK  134  A    between atoms: _324  and  _326
REMARK  135  A    between atoms: _326  and  _327
REMARK  136  A    between atoms: _329  and  _331
REMARK  137  A    between atoms: _331  and  _332
REMARK  138  A    between atoms: _335  and  _337
REMARK  139  A    between atoms: _337  and  _338
REMARK  140  A    between atoms: _337  and  _340
REMARK  141  A    between atoms: _340  and  _341
REMARK  142  A    between atoms: _344  and  _346
REMARK  143  A    between atoms: _346  and  _347
REMARK  144  A    between atoms: _346  and  _349
REMARK  145  A    between atoms: _349  and  _350
REMARK  146  A    between atoms: _353  and  _355
REMARK  147  A    between atoms: _355  and  _356
REMARK  148  A    between atoms: _355  and  _358
REMARK  149  A    between atoms: _358  and  _359
REMARK  150  A    between atoms: _362  and  _364
REMARK  151  A    between atoms: _364  and  _365
REMARK  152  A    between atoms: _364  and  _367
REMARK  153  A    between atoms: _370  and  _372
REMARK  154  A    between atoms: _372  and  _373
REMARK  155  A    between atoms: _372  and  _375
REMARK  156  A    between atoms: _375  and  _376
REMARK  157  A    between atoms: _379  and  _381
REMARK  158  A    between atoms: _381  and  _382
REMARK  159  A    between atoms: _384  and  _386
REMARK  160  A    between atoms: _386  and  _387
REMARK  161  A    between atoms: _389  and  _391
REMARK  162  A    between atoms: _391  and  _392
REMARK  163  A    between atoms: _391  and  _394
REMARK  164  A    between atoms: _394  and  _395
REMARK  165  A    between atoms: _398  and  _400
REMARK  166  A    between atoms: _400  and  _401
REMARK  167  A    between atoms: _403  and  _405
REMARK  168  A    between atoms: _405  and  _406
REMARK  169  A    between atoms: _408  and  _410
REMARK  170  A    between atoms: _410  and  _411
REMARK  171  A    between atoms: _410  and  _413
REMARK  172  A    between atoms: _413  and  _414
REMARK  173  A    between atoms: _417  and  _419
REMARK  174  A    between atoms: _419  and  _420
REMARK  175  A    between atoms: _419  and  _422
REMARK  176  A    between atoms: _422  and  _423
REMARK  177  A    between atoms: _427  and  _428
REMARK  178  A    between atoms: _433  and  _435
REMARK  179  A    between atoms: _435  and  _436
REMARK  180  A    between atoms: _439  and  _441
REMARK  181  A    between atoms: _441  and  _442
REMARK  182  A    between atoms: _441  and  _444
REMARK  183  A    between atoms: _444  and  _445
REMARK  184  A    between atoms: _450  and  _452
REMARK  185  A    between atoms: _452  and  _453
REMARK  186  A    between atoms: _452  and  _455
REMARK  187  A    between atoms: _455  and  _456
REMARK  188  A    between atoms: _459  and  _461
REMARK  189  A    between atoms: _461  and  _462
REMARK  190  A    between atoms: _461  and  _464
REMARK  191  A    between atoms: _464  and  _465
REMARK  192  A    between atoms: _468  and  _470
REMARK  193  A    between atoms: _470  and  _471
REMARK  194  A    between atoms: _473  and  _475
REMARK  195  A    between atoms: _475  and  _476
REMARK  196  A    between atoms: _475  and  _478
REMARK  197  A    between atoms: _478  and  _479
REMARK  198  A    between atoms: _479  and  _480
REMARK  199  A    between atoms: _480  and  _481
REMARK  200  A    between atoms: _490  and  _492
REMARK  201  A    between atoms: _492  and  _493
REMARK  202  A    between atoms: _492  and  _495
REMARK  203  A    between atoms: _495  and  _496
REMARK                            x       y       z     vdW  Elec       q    Type
REMARK                         _______ _______ _______ _____ _____    ______ ____
ROOT
ATOM      1  O   UNL     1      17.619  23.657   8.412  0.00  0.00    +0.000 OA
ATOM      2  O   UNL     1      16.201  23.704   8.117  0.00  0.00    +0.000 OA
ENDROOT
TORSDOF 0
REMARK  Name = ../refined-set-2016/2idw/2idw_pocket.pdb
REMARK  203 active torsions:
REMARK  status: ('A' for Active; 'I' for Inactive)
REMARK    1  A    between atoms: _1  and  _3
REMARK    2  A    between atoms: _3  and  _4
REMARK    3  A    between atoms: _3  and  _6
REMARK    4  A    between atoms: _6  and  _7
REMARK    5  A    between atoms: _7  and  _8
REMARK    6  A    between atoms: _8  and  _9
REMARK    7  A    between atoms: _18  and  _20
REMARK    8  A    between atoms: _20  and  _21
REMARK    9  A    between atoms: _20  and  _23
REMARK   10  A    between atoms: _23  and  _24
REMARK   11  A    between atoms: _27  and  _29
REMARK   12  A    between atoms: _29  and  _30
REMARK   13  A    between atoms: _29  and  _32
REMARK   14  A    between atoms: _32  and  _33
REMARK   15  A    between atoms: _36  and  _38
REMARK   16  A    between atoms: _38  and  _39
REMARK   17  A    between atoms: _38  and  _41
REMARK   18  A    between atoms: _41  and  _42
REMARK   19  A    between atoms: _45  and  _47
REMARK   20  A    between atoms: _47  and  _48
REMARK   21  A    between atoms: _47  and  _50
REMARK   22  A    between atoms: _50  and  _51
REMARK   23  A    between atoms: _54  and  _56
REMARK   24  A    between atoms: _56  and  _57
REMARK   25  A    between atoms: _59  and  _61
REMARK   26  A    between atoms: _61  and  _62
REMARK   27  A    between atoms: _65  and  _67
REMARK   28  A    between atoms: _67  and  _68
REMARK   29  A    between atoms: _67  and  _70
REMARK   30  A    between atoms: _70  and  _71
REMARK   31  A    between atoms: _74  and  _76
REMARK   32  A    between atoms: _76  and  _77
REMARK   33  A    between atoms: _76  and  _79
REMARK   34  A    between atoms: _79  and  _80
REMARK   35  A    between atoms: _83  and  _85
REMARK   36  A    between atoms: _85  and  _86
REMARK   37  A    between atoms: _85  and  _88
REMARK   38  A    between atoms: _88  and  _89
REMARK   39  A    between atoms: _92  and  _94
REMARK   40  A    between atoms: _94  and  _95
REMARK   41  A    between atoms: _94  and  _97
REMARK   42  A    between atoms: _100  and  _102
REMARK   43  A    between atoms: _102  and  _103
REMARK   44  A    between atoms: _102  and  _105
REMARK   45  A    between atoms: _105  and  _106
REMARK   46  A    between atoms: _106  and  _107
REMARK   47  A    between atoms: _107  and  _108
REMARK   48  A    between atoms: _108  and  _109
REMARK   49  A    between atoms: _113  and  _115
REMARK   50  A    between atoms: _115  and  _116
REMARK   51  A    between atoms: _115  and  _118
REMARK   52  A    between atoms: _118  and  _119
REMARK   53  A    between atoms: _119  and  _120
REMARK   54  A    between atoms: _122  and  _124
REMARK   55  A    between atoms: _124  and  _125
REMARK   56  A    between atoms: _124  and  _127
REMARK   57  A    between atoms: _127  and  _128
REMARK   58  A    between atoms: _131  and  _133
REMARK   59  A    between atoms: _133  and  _134
REMARK   60  A    between atoms: _136  and  _138
REMARK   61  A    between atoms: _138  and  _139
REMARK   62  A    between atoms: _141  and  _143
REMARK   63  A    between atoms: _143  and  _144
REMARK   64  A    between atoms: _143  and  _146
REMARK   65  A    between atoms: _146  and  _147
REMARK   66  A    between atoms: _150  and  _152
REMARK   67  A    between atoms: _152  and  _153
REMARK   68  A    between atoms: _155  and  _157
REMARK   69  A    between atoms: _157  and  _158
REMARK   70  A    between atoms: _160  and  _162
REMARK   71  A    between atoms: _162  and  _163
REMARK   72  A    between atoms: _162  and  _165
REMARK   73  A    between atoms: _165  and  _166
REMARK   74  A    between atoms: _172  and  _174
REMARK   75  A    between atoms: _174  and  _175
REMARK   76  A    between atoms: _174  and  _177
REMARK   77  A    between atoms: _177  and  _178
REMARK   78  A    between atoms: _181  and  _183
REMARK   79  A    between atoms: _183  and  _184
REMARK   80  A    between atoms: _183  and  _186
REMARK   81  A    between atoms: _189  and  _191
REMARK   82  A    between atoms: _191  and  _192
REMARK   83  A    between atoms: _191  and  _194
REMARK   84  A    between atoms: _194  and  _195
REMARK   85  A    between atoms: _198  and  _200
REMARK   86  A    between atoms: _200  and  _201
REMARK   87  A    between atoms: _200  and  _203
REMARK   88  A    between atoms: _203  and  _204
REMARK   89  A    between atoms: _208  and  _209
REMARK   90  A    between atoms: _214  and  _216
REMARK   91  A    between atoms: _216  and  _217
REMARK   92  A    between atoms: _220  and  _222
REMARK   93  A    between atoms: _222  and  _223
REMARK   94  A    between atoms: _222  and  _225
REMARK   95  A    between atoms: _225  and  _226
REMARK   96  A    between atoms: _231  and  _233
REMARK   97  A    between atoms: _233  and  _234
REMARK   98  A    between atoms: _233  and  _236
REMARK   99  A    between atoms: _236  and  _237
REMARK  100  A    between atoms: _240  and  _242
REMARK  101  A    between atoms: _242  and  _243
REMARK  102  A    between atoms: _242  and  _245
REMARK  103  A    between atoms: _245  and  _246
REMARK  104  A    between atoms: _249  and  _251
REMARK  105  A    between atoms: _251  and  _252
REMARK  106  A    between atoms: _254  and  _256
REMARK  107  A    between atoms: _256  and  _257
REMARK  108  A    between atoms: _256  and  _259
REMARK  109  A    between atoms: _259  and  _260
REMARK  110  A    between atoms: _260  and  _261
REMARK  111  A    between atoms: _261  and  _262
REMARK  112  A    between atoms: _271  and  _273
REMARK  113  A    between atoms: _273  and  _274
REMARK  114  A    between atoms: _273  and  _276
REMARK  115  A    between atoms: _276  and  _277
REMARK  116  A    between atoms: _277  and  _278
REMARK  117  A    between atoms: _278  and  _279
REMARK  118  A    between atoms: _288  and  _290
REMARK  119  A    between atoms: _290  and  _291
REMARK  120  A    between atoms: _290  and  _293
REMARK  121  A    between atoms: _293  and  _294
REMARK  122  A    between atoms: _297  and  _299
REMARK  123  A    between atoms: _299  and  _300
REMARK  124  A    between atoms: _299  and  _302
REMARK  125  A    between atoms: _302  and  _303
REMARK  126  A    between atoms: _306  and  _308
REMARK  127  A    between atoms: _308  and  _309
REMARK  128  A    between atoms: _308  and  _311
REMARK  129  A    between atoms: _311  and  _312
REMARK  130  A    between atoms: _315  and  _317
REMARK  131  A    between atoms: _317  and  _318
REMARK  132  A    between atoms: _317  and  _320
REMARK  133  A    between atoms: _320  and  _321
REMARK  134  A    between atoms: _324  and  _326
REMARK  135  A    between atoms: _326  and  _327
REMARK  136  A    between atoms: _329  and  _331
REMARK  137  A    between atoms: _331  and  _332
REMARK  138  A    between atoms: _335  and  _337
REMARK  139  A    between atoms: _337  and  _338
REMARK  140  A    between atoms: _337  and  _340
REMARK  141  A    between atoms: _340  and  _341
REMARK  142  A    between atoms: _344  and  _346
REMARK  143  A    between atoms: _346  and  _347
REMARK  144  A    between atoms: _346  and  _349
REMARK  145  A    between atoms: _349  and  _350
REMARK  146  A    between atoms: _353  and  _355
REMARK  147  A    between atoms: _355  and  _356
REMARK  148  A    between atoms: _355  and  _358
REMARK  149  A    between atoms: _358  and  _359
REMARK  150  A    between atoms: _362  and  _364
REMARK  151  A    between atoms: _364  and  _365
REMARK  152  A    between atoms: _364  and  _367
REMARK  153  A    between atoms: _370  and  _372
REMARK  154  A    between atoms: _372  and  _373
REMARK  155  A    between atoms: _372  and  _375
REMARK  156  A    between atoms: _375  and  _376
REMARK  157  A    between atoms: _379  and  _381
REMARK  158  A    between atoms: _381  and  _382
REMARK  159  A    between atoms: _384  and  _386
REMARK  160  A    between atoms: _386  and  _387
REMARK  161  A    between atoms: _389  and  _391
REMARK  162  A    between atoms: _391  and  _392
REMARK  163  A    between atoms: _391  and  _394
REMARK  164  A    between atoms: _394  and  _395
REMARK  165  A    between atoms: _398  and  _400
REMARK  166  A    between atoms: _400  and  _401
REMARK  167  A    between atoms: _403  and  _405
REMARK  168  A    between atoms: _405  and  _406
REMARK  169  A    between atoms: _408  and  _410
REMARK  170  A    between atoms: _410  and  _411
REMARK  171  A    between atoms: _410  and  _413
REMARK  172  A    between atoms: _413  and  _414
REMARK  173  A    between atoms: _417  and  _419
REMARK  174  A    between atoms: _419  and  _420
REMARK  175  A    between atoms: _419  and  _422
REMARK  176  A    between atoms: _422  and  _423
REMARK  177  A    between atoms: _427  and  _428
REMARK  178  A    between atoms: _433  and  _435
REMARK  179  A    between atoms: _435  and  _436
REMARK  180  A    between atoms: _439  and  _441
REMARK  181  A    between atoms: _441  and  _442
REMARK  182  A    between atoms: _441  and  _444
REMARK  183  A    between atoms: _444  and  _445
REMARK  184  A    between atoms: _450  and  _452
REMARK  185  A    between atoms: _452  and  _453
REMARK  186  A    between atoms: _452  and  _455
REMARK  187  A    between atoms: _455  and  _456
REMARK  188  A    between atoms: _459  and  _461
REMARK  189  A    between atoms: _461  and  _462
REMARK  190  A    between atoms: _461  and  _464
REMARK  191  A    between atoms: _464  and  _465
REMARK  192  A    between atoms: _468  and  _470
REMARK  193  A    between atoms: _470  and  _471
REMARK  194  A    between atoms: _473  and  _475
REMARK  195  A    between atoms: _475  and  _476
REMARK  196  A    between atoms: _475  and  _478
REMARK  197  A    between atoms: _478  and  _479
REMARK  198  A    between atoms: _479  and  _480
REMARK  199  A    between atoms: _480  and  _481
REMARK  200  A    between atoms: _490  and  _492
REMARK  201  A    between atoms: _492  and  _493
REMARK  202  A    between atoms: _492  and  _495
REMARK  203  A    between atoms: _495  and  _496
REMARK                            x       y       z     vdW  Elec       q    Type
REMARK                         _______ _______ _______ _____ _____    ______ ____
ROOT
ATOM      1  O   HOH     1      14.394  38.675  23.701  0.00  0.00    +0.000 OA
ENDROOT
TORSDOF 0
REMARK  Name = ../refined-set-2016/2idw/2idw_pocket.pdb
REMARK  203 active torsions:
REMARK  status: ('A' for Active; 'I' for Inactive)
REMARK    1  A    between atoms: _1  and  _3
REMARK    2  A    between atoms: _3  and  _4
REMARK    3  A    between atoms: _3  and  _6
REMARK    4  A    between atoms: _6  and  _7
REMARK    5  A    between atoms: _7  and  _8
REMARK    6  A    between atoms: _8  and  _9
REMARK    7  A    between atoms: _18  and  _20
REMARK    8  A    between atoms: _20  and  _21
REMARK    9  A    between atoms: _20  and  _23
REMARK   10  A    between atoms: _23  and  _24
REMARK   11  A    between atoms: _27  and  _29
REMARK   12  A    between atoms: _29  and  _30
REMARK   13  A    between atoms: _29  and  _32
REMARK   14  A    between atoms: _32  and  _33
REMARK   15  A    between atoms: _36  and  _38
REMARK   16  A    between atoms: _38  and  _39
REMARK   17  A    between atoms: _38  and  _41
REMARK   18  A    between atoms: _41  and  _42
REMARK   19  A    between atoms: _45  and  _47
REMARK   20  A    between atoms: _47  and  _48
REMARK   21  A    between atoms: _47  and  _50
REMARK   22  A    between atoms: _50  and  _51
REMARK   23  A    between atoms: _54  and  _56
REMARK   24  A    between atoms: _56  and  _57
REMARK   25  A    between atoms: _59  and  _61
REMARK   26  A    between atoms: _61  and  _62
REMARK   27  A    between atoms: _65  and  _67
REMARK   28  A    between atoms: _67  and  _68
REMARK   29  A    between atoms: _67  and  _70
REMARK   30  A    between atoms: _70  and  _71
REMARK   31  A    between atoms: _74  and  _76
REMARK   32  A    between atoms: _76  and  _77
REMARK   33  A    between atoms: _76  and  _79
REMARK   34  A    between atoms: _79  and  _80
REMARK   35  A    between atoms: _83  and  _85
REMARK   36  A    between atoms: _85  and  _86
REMARK   37  A    between atoms: _85  and  _88
REMARK   38  A    between atoms: _88  and  _89
REMARK   39  A    between atoms: _92  and  _94
REMARK   40  A    between atoms: _94  and  _95
REMARK   41  A    between atoms: _94  and  _97
REMARK   42  A    between atoms: _100  and  _102
REMARK   43  A    between atoms: _102  and  _103
REMARK   44  A    between atoms: _102  and  _105
REMARK   45  A    between atoms: _105  and  _106
REMARK   46  A    between atoms: _106  and  _107
REMARK   47  A    between atoms: _107  and  _108
REMARK   48  A    between atoms: _108  and  _109
REMARK   49  A    between atoms: _113  and  _115
REMARK   50  A    between atoms: _115  and  _116
REMARK   51  A    between atoms: _115  and  _118
REMARK   52  A    between atoms: _118  and  _119
REMARK   53  A    between atoms: _119  and  _120
REMARK   54  A    between atoms: _122  and  _124
REMARK   55  A    between atoms: _124  and  _125
REMARK   56  A    between atoms: _124  and  _127
REMARK   57  A    between atoms: _127  and  _128
REMARK   58  A    between atoms: _131  and  _133
REMARK   59  A    between atoms: _133  and  _134
REMARK   60  A    between atoms: _136  and  _138
REMARK   61  A    between atoms: _138  and  _139
REMARK   62  A    between atoms: _141  and  _143
REMARK   63  A    between atoms: _143  and  _144
REMARK   64  A    between atoms: _143  and  _146
REMARK   65  A    between atoms: _146  and  _147
REMARK   66  A    between atoms: _150  and  _152
REMARK   67  A    between atoms: _152  and  _153
REMARK   68  A    between atoms: _155  and  _157
REMARK   69  A    between atoms: _157  and  _158
REMARK   70  A    between atoms: _160  and  _162
REMARK   71  A    between atoms: _162  and  _163
REMARK   72  A    between atoms: _162  and  _165
REMARK   73  A    between atoms: _165  and  _166
REMARK   74  A    between atoms: _172  and  _174
REMARK   75  A    between atoms: _174  and  _175
REMARK   76  A    between atoms: _174  and  _177
REMARK   77  A    between atoms: _177  and  _178
REMARK   78  A    between atoms: _181  and  _183
REMARK   79  A    between atoms: _183  and  _184
REMARK   80  A    between atoms: _183  and  _186
REMARK   81  A    between atoms: _189  and  _191
REMARK   82  A    between atoms: _191  and  _192
REMARK   83  A    between atoms: _191  and  _194
REMARK   84  A    between atoms: _194  and  _195
REMARK   85  A    between atoms: _198  and  _200
REMARK   86  A    between atoms: _200  and  _201
REMARK   87  A    between atoms: _200  and  _203
REMARK   88  A    between atoms: _203  and  _204
REMARK   89  A    between atoms: _208  and  _209
REMARK   90  A    between atoms: _214  and  _216
REMARK   91  A    between atoms: _216  and  _217
REMARK   92  A    between atoms: _220  and  _222
REMARK   93  A    between atoms: _222  and  _223
REMARK   94  A    between atoms: _222  and  _225
REMARK   95  A    between atoms: _225  and  _226
REMARK   96  A    between atoms: _231  and  _233
REMARK   97  A    between atoms: _233  and  _234
REMARK   98  A    between atoms: _233  and  _236
REMARK   99  A    between atoms: _236  and  _237
REMARK  100  A    between atoms: _240  and  _242
REMARK  101  A    between atoms: _242  and  _243
REMARK  102  A    between atoms: _242  and  _245
REMARK  103  A    between atoms: _245  and  _246
REMARK  104  A    between atoms: _249  and  _251
REMARK  105  A    between atoms: _251  and  _252
REMARK  106  A    between atoms: _254  and  _256
REMARK  107  A    between atoms: _256  and  _257
REMARK  108  A    between atoms: _256  and  _259
REMARK  109  A    between atoms: _259  and  _260
REMARK  110  A    between atoms: _260  and  _261
REMARK  111  A    between atoms: _261  and  _262
REMARK  112  A    between atoms: _271  and  _273
REMARK  113  A    between atoms: _273  and  _274
REMARK  114  A    between atoms: _273  and  _276
REMARK  115  A    between atoms: _276  and  _277
REMARK  116  A    between atoms: _277  and  _278
REMARK  117  A    between atoms: _278  and  _279
REMARK  118  A    between atoms: _288  and  _290
REMARK  119  A    between atoms: _290  and  _291
REMARK  120  A    between atoms: _290  and  _293
REMARK  121  A    between atoms: _293  and  _294
REMARK  122  A    between atoms: _297  and  _299
REMARK  123  A    between atoms: _299  and  _300
REMARK  124  A    between atoms: _299  and  _302
REMARK  125  A    between atoms: _302  and  _303
REMARK  126  A    between atoms: _306  and  _308
REMARK  127  A    between atoms: _308  and  _309
REMARK  128  A    between atoms: _308  and  _311
REMARK  129  A    between atoms: _311  and  _312
REMARK  130  A    between atoms: _315  and  _317
REMARK  131  A    between atoms: _317  and  _318
REMARK  132  A    between atoms: _317  and  _320
REMARK  133  A    between atoms: _320  and  _321
REMARK  134  A    between atoms: _324  and  _326
REMARK  135  A    between atoms: _326  and  _327
REMARK  136  A    between atoms: _329  and  _331
REMARK  137  A    between atoms: _331  and  _332
REMARK  138  A    between atoms: _335  and  _337
REMARK  139  A    between atoms: _337  and  _338
REMARK  140  A    between atoms: _337  and  _340
REMARK  141  A    between atoms: _340  and  _341
REMARK  142  A    between atoms: _344  and  _346
REMARK  143  A    between atoms: _346  and  _347
REMARK  144  A    between atoms: _346  and  _349
REMARK  145  A    between atoms: _349  and  _350
REMARK  146  A    between atoms: _353  and  _355
REMARK  147  A    between atoms: _355  and  _356
REMARK  148  A    between atoms: _355  and  _358
REMARK  149  A    between atoms: _358  and  _359
REMARK  150  A    between atoms: _362  and  _364
REMARK  151  A    between atoms: _364  and  _365
REMARK  152  A    between atoms: _364  and  _367
REMARK  153  A    between atoms: _370  and  _372
REMARK  154  A    between atoms: _372  and  _373
REMARK  155  A    between atoms: _372  and  _375
REMARK  156  A    between atoms: _375  and  _376
REMARK  157  A    between atoms: _379  and  _381
REMARK  158  A    between atoms: _381  and  _382
REMARK  159  A    between atoms: _384  and  _386
REMARK  160  A    between atoms: _386  and  _387
REMARK  161  A    between atoms: _389  and  _391
REMARK  162  A    between atoms: _391  and  _392
REMARK  163  A    between atoms: _391  and  _394
REMARK  164  A    between atoms: _394  and  _395
REMARK  165  A    between atoms: _398  and  _400
REMARK  166  A    between atoms: _400  and  _401
REMARK  167  A    between atoms: _403  and  _405
REMARK  168  A    between atoms: _405  and  _406
REMARK  169  A    between atoms: _408  and  _410
REMARK  170  A    between atoms: _410  and  _411
REMARK  171  A    between atoms: _410  and  _413
REMARK  172  A    between atoms: _413  and  _414
REMARK  173  A    between atoms: _417  and  _419
REMARK  174  A    between atoms: _419  and  _420
REMARK  175  A    between atoms: _419  and  _422
REMARK  176  A    between atoms: _422  and  _423
REMARK  177  A    between atoms: _427  and  _428
REMARK  178  A    between atoms: _433  and  _435
REMARK  179  A    between atoms: _435  and  _436
REMARK  180  A    between atoms: _439  and  _441
REMARK  181  A    between atoms: _441  and  _442
REMARK  182  A    between atoms: _441  and  _444
REMARK  183  A    between atoms: _444  and  _445
REMARK  184  A    between atoms: _450  and  _452
REMARK  185  A    between atoms: _452  and  _453
REMARK  186  A    between atoms: _452  and  _455
REMARK  187  A    between atoms: _455  and  _456
REMARK  188  A    between atoms: _459  and  _461
REMARK  189  A    between atoms: _461  and  _462
REMARK  190  A    between atoms: _461  and  _464
REMARK  191  A    between atoms: _464  and  _465
REMARK  192  A    between atoms: _468  and  _470
REMARK  193  A    between atoms: _470  and  _471
REMARK  194  A    between atoms: _473  and  _475
REMARK  195  A    between atoms: _475  and  _476
REMARK  196  A    between atoms: _475  and  _478
REMARK  197  A    between atoms: _478  and  _479
REMARK  198  A    between atoms: _479  and  _480
REMARK  199  A    between atoms: _480  and  _481
REMARK  200  A    between atoms: _490  and  _492
REMARK  201  A    between atoms: _492  and  _493
REMARK  202  A    between atoms: _492  and  _495
REMARK  203  A    between atoms: _495  and  _496
REMARK                            x       y       z     vdW  Elec       q    Type
REMARK                         _______ _______ _______ _____ _____    ______ ____
ROOT
ATOM      1  O   HOH     1      20.487  40.535  15.488  0.00  0.00    +0.000 OA
ENDROOT
TORSDOF 0
REMARK  Name = ../refined-set-2016/2idw/2idw_pocket.pdb
REMARK  203 active torsions:
REMARK  status: ('A' for Active; 'I' for Inactive)
REMARK    1  A    between atoms: _1  and  _3
REMARK    2  A    between atoms: _3  and  _4
REMARK    3  A    between atoms: _3  and  _6
REMARK    4  A    between atoms: _6  and  _7
REMARK    5  A    between atoms: _7  and  _8
REMARK    6  A    between atoms: _8  and  _9
REMARK    7  A    between atoms: _18  and  _20
REMARK    8  A    between atoms: _20  and  _21
REMARK    9  A    between atoms: _20  and  _23
REMARK   10  A    between atoms: _23  and  _24
REMARK   11  A    between atoms: _27  and  _29
REMARK   12  A    between atoms: _29  and  _30
REMARK   13  A    between atoms: _29  and  _32
REMARK   14  A    between atoms: _32  and  _33
REMARK   15  A    between atoms: _36  and  _38
REMARK   16  A    between atoms: _38  and  _39
REMARK   17  A    between atoms: _38  and  _41
REMARK   18  A    between atoms: _41  and  _42
REMARK   19  A    between atoms: _45  and  _47
REMARK   20  A    between atoms: _47  and  _48
REMARK   21  A    between atoms: _47  and  _50
REMARK   22  A    between atoms: _50  and  _51
REMARK   23  A    between atoms: _54  and  _56
REMARK   24  A    between atoms: _56  and  _57
REMARK   25  A    between atoms: _59  and  _61
REMARK   26  A    between atoms: _61  and  _62
REMARK   27  A    between atoms: _65  and  _67
REMARK   28  A    between atoms: _67  and  _68
REMARK   29  A    between atoms: _67  and  _70
REMARK   30  A    between atoms: _70  and  _71
REMARK   31  A    between atoms: _74  and  _76
REMARK   32  A    between atoms: _76  and  _77
REMARK   33  A    between atoms: _76  and  _79
REMARK   34  A    between atoms: _79  and  _80
REMARK   35  A    between atoms: _83  and  _85
REMARK   36  A    between atoms: _85  and  _86
REMARK   37  A    between atoms: _85  and  _88
REMARK   38  A    between atoms: _88  and  _89
REMARK   39  A    between atoms: _92  and  _94
REMARK   40  A    between atoms: _94  and  _95
REMARK   41  A    between atoms: _94  and  _97
REMARK   42  A    between atoms: _100  and  _102
REMARK   43  A    between atoms: _102  and  _103
REMARK   44  A    between atoms: _102  and  _105
REMARK   45  A    between atoms: _105  and  _106
REMARK   46  A    between atoms: _106  and  _107
REMARK   47  A    between atoms: _107  and  _108
REMARK   48  A    between atoms: _108  and  _109
REMARK   49  A    between atoms: _113  and  _115
REMARK   50  A    between atoms: _115  and  _116
REMARK   51  A    between atoms: _115  and  _118
REMARK   52  A    between atoms: _118  and  _119
REMARK   53  A    between atoms: _119  and  _120
REMARK   54  A    between atoms: _122  and  _124
REMARK   55  A    between atoms: _124  and  _125
REMARK   56  A    between atoms: _124  and  _127
REMARK   57  A    between atoms: _127  and  _128
REMARK   58  A    between atoms: _131  and  _133
REMARK   59  A    between atoms: _133  and  _134
REMARK   60  A    between atoms: _136  and  _138
REMARK   61  A    between atoms: _138  and  _139
REMARK   62  A    between atoms: _141  and  _143
REMARK   63  A    between atoms: _143  and  _144
REMARK   64  A    between atoms: _143  and  _146
REMARK   65  A    between atoms: _146  and  _147
REMARK   66  A    between atoms: _150  and  _152
REMARK   67  A    between atoms: _152  and  _153
REMARK   68  A    between atoms: _155  and  _157
REMARK   69  A    between atoms: _157  and  _158
REMARK   70  A    between atoms: _160  and  _162
REMARK   71  A    between atoms: _162  and  _163
REMARK   72  A    between atoms: _162  and  _165
REMARK   73  A    between atoms: _165  and  _166
REMARK   74  A    between atoms: _172  and  _174
REMARK   75  A    between atoms: _174  and  _175
REMARK   76  A    between atoms: _174  and  _177
REMARK   77  A    between atoms: _177  and  _178
REMARK   78  A    between atoms: _181  and  _183
REMARK   79  A    between atoms: _183  and  _184
REMARK   80  A    between atoms: _183  and  _186
REMARK   81  A    between atoms: _189  and  _191
REMARK   82  A    between atoms: _191  and  _192
REMARK   83  A    between atoms: _191  and  _194
REMARK   84  A    between atoms: _194  and  _195
REMARK   85  A    between atoms: _198  and  _200
REMARK   86  A    between atoms: _200  and  _201
REMARK   87  A    between atoms: _200  and  _203
REMARK   88  A    between atoms: _203  and  _204
REMARK   89  A    between atoms: _208  and  _209
REMARK   90  A    between atoms: _214  and  _216
REMARK   91  A    between atoms: _216  and  _217
REMARK   92  A    between atoms: _220  and  _222
REMARK   93  A    between atoms: _222  and  _223
REMARK   94  A    between atoms: _222  and  _225
REMARK   95  A    between atoms: _225  and  _226
REMARK   96  A    between atoms: _231  and  _233
REMARK   97  A    between atoms: _233  and  _234
REMARK   98  A    between atoms: _233  and  _236
REMARK   99  A    between atoms: _236  and  _237
REMARK  100  A    between atoms: _240  and  _242
REMARK  101  A    between atoms: _242  and  _243
REMARK  102  A    between atoms: _242  and  _245
REMARK  103  A    between atoms: _245  and  _246
REMARK  104  A    between atoms: _249  and  _251
REMARK  105  A    between atoms: _251  and  _252
REMARK  106  A    between atoms: _254  and  _256
REMARK  107  A    between atoms: _256  and  _257
REMARK  108  A    between atoms: _256  and  _259
REMARK  109  A    between atoms: _259  and  _260
REMARK  110  A    between atoms: _260  and  _261
REMARK  111  A    between atoms: _261  and  _262
REMARK  112  A    between atoms: _271  and  _273
REMARK  113  A    between atoms: _273  and  _274
REMARK  114  A    between atoms: _273  and  _276
REMARK  115  A    between atoms: _276  and  _277
REMARK  116  A    between atoms: _277  and  _278
REMARK  117  A    between atoms: _278  and  _279
REMARK  118  A    between atoms: _288  and  _290
REMARK  119  A    between atoms: _290  and  _291
REMARK  120  A    between atoms: _290  and  _293
REMARK  121  A    between atoms: _293  and  _294
REMARK  122  A    between atoms: _297  and  _299
REMARK  123  A    between atoms: _299  and  _300
REMARK  124  A    between atoms: _299  and  _302
REMARK  125  A    between atoms: _302  and  _303
REMARK  126  A    between atoms: _306  and  _308
REMARK  127  A    between atoms: _308  and  _309
REMARK  128  A    between atoms: _308  and  _311
REMARK  129  A    between atoms: _311  and  _312
REMARK  130  A    between atoms: _315  and  _317
REMARK  131  A    between atoms: _317  and  _318
REMARK  132  A    between atoms: _317  and  _320
REMARK  133  A    between atoms: _320  and  _321
REMARK  134  A    between atoms: _324  and  _326
REMARK  135  A    between atoms: _326  and  _327
REMARK  136  A    between atoms: _329  and  _331
REMARK  137  A    between atoms: _331  and  _332
REMARK  138  A    between atoms: _335  and  _337
REMARK  139  A    between atoms: _337  and  _338
REMARK  140  A    between atoms: _337  and  _340
REMARK  141  A    between atoms: _340  and  _341
REMARK  142  A    between atoms: _344  and  _346
REMARK  143  A    between atoms: _346  and  _347
REMARK  144  A    between atoms: _346  and  _349
REMARK  145  A    between atoms: _349  and  _350
REMARK  146  A    between atoms: _353  and  _355
REMARK  147  A    between atoms: _355  and  _356
REMARK  148  A    between atoms: _355  and  _358
REMARK  149  A    between atoms: _358  and  _359
REMARK  150  A    between atoms: _362  and  _364
REMARK  151  A    between atoms: _364  and  _365
REMARK  152  A    between atoms: _364  and  _367
REMARK  153  A    between atoms: _370  and  _372
REMARK  154  A    between atoms: _372  and  _373
REMARK  155  A    between atoms: _372  and  _375
REMARK  156  A    between atoms: _375  and  _376
REMARK  157  A    between atoms: _379  and  _381
REMARK  158  A    between atoms: _381  and  _382
REMARK  159  A    between atoms: _384  and  _386
REMARK  160  A    between atoms: _386  and  _387
REMARK  161  A    between atoms: _389  and  _391
REMARK  162  A    between atoms: _391  and  _392
REMARK  163  A    between atoms: _391  and  _394
REMARK  164  A    between atoms: _394  and  _395
REMARK  165  A    between atoms: _398  and  _400
REMARK  166  A    between atoms: _400  and  _401
REMARK  167  A    between atoms: _403  and  _405
REMARK  168  A    between atoms: _405  and  _406
REMARK  169  A    between atoms: _408  and  _410
REMARK  170  A    between atoms: _410  and  _411
REMARK  171  A    between atoms: _410  and  _413
REMARK  172  A    between atoms: _413  and  _414
REMARK  173  A    between atoms: _417  and  _419
REMARK  174  A    between atoms: _419  and  _420
REMARK  175  A    between atoms: _419  and  _422
REMARK  176  A    between atoms: _422  and  _423
REMARK  177  A    between atoms: _427  and  _428
REMARK  178  A    between atoms: _433  and  _435
REMARK  179  A    between atoms: _435  and  _436
REMARK  180  A    between atoms: _439  and  _441
REMARK  181  A    between atoms: _441  and  _442
REMARK  182  A    between atoms: _441  and  _444
REMARK  183  A    between atoms: _444  and  _445
REMARK  184  A    between atoms: _450  and  _452
REMARK  185  A    between atoms: _452  and  _453
REMARK  186  A    between atoms: _452  and  _455
REMARK  187  A    between atoms: _455  and  _456
REMARK  188  A    between atoms: _459  and  _461
REMARK  189  A    between atoms: _461  and  _462
REMARK  190  A    between atoms: _461  and  _464
REMARK  191  A    between atoms: _464  and  _465
REMARK  192  A    between atoms: _468  and  _470
REMARK  193  A    between atoms: _470  and  _471
REMARK  194  A    between atoms: _473  and  _475
REMARK  195  A    between atoms: _475  and  _476
REMARK  196  A    between atoms: _475  and  _478
REMARK  197  A    between atoms: _478  and  _479
REMARK  198  A    between atoms: _479  and  _480
REMARK  199  A    between atoms: _480  and  _481
REMARK  200  A    between atoms: _490  and  _492
REMARK  201  A    between atoms: _492  and  _493
REMARK  202  A    between atoms: _492  and  _495
REMARK  203  A    between atoms: _495  and  _496
REMARK                            x       y       z     vdW  Elec       q    Type
REMARK                         _______ _______ _______ _____ _____    ______ ____
ROOT
ATOM      1  O   HOH     1      14.243  21.627  12.085  0.00  0.00    +0.000 OA
ENDROOT
TORSDOF 0
REMARK  Name = ../refined-set-2016/2idw/2idw_pocket.pdb
REMARK  203 active torsions:
REMARK  status: ('A' for Active; 'I' for Inactive)
REMARK    1  A    between atoms: _1  and  _3
REMARK    2  A    between atoms: _3  and  _4
REMARK    3  A    between atoms: _3  and  _6
REMARK    4  A    between atoms: _6  and  _7
REMARK    5  A    between atoms: _7  and  _8
REMARK    6  A    between atoms: _8  and  _9
REMARK    7  A    between atoms: _18  and  _20
REMARK    8  A    between atoms: _20  and  _21
REMARK    9  A    between atoms: _20  and  _23
REMARK   10  A    between atoms: _23  and  _24
REMARK   11  A    between atoms: _27  and  _29
REMARK   12  A    between atoms: _29  and  _30
REMARK   13  A    between atoms: _29  and  _32
REMARK   14  A    between atoms: _32  and  _33
REMARK   15  A    between atoms: _36  and  _38
REMARK   16  A    between atoms: _38  and  _39
REMARK   17  A    between atoms: _38  and  _41
REMARK   18  A    between atoms: _41  and  _42
REMARK   19  A    between atoms: _45  and  _47
REMARK   20  A    between atoms: _47  and  _48
REMARK   21  A    between atoms: _47  and  _50
REMARK   22  A    between atoms: _50  and  _51
REMARK   23  A    between atoms: _54  and  _56
REMARK   24  A    between atoms: _56  and  _57
REMARK   25  A    between atoms: _59  and  _61
REMARK   26  A    between atoms: _61  and  _62
REMARK   27  A    between atoms: _65  and  _67
REMARK   28  A    between atoms: _67  and  _68
REMARK   29  A    between atoms: _67  and  _70
REMARK   30  A    between atoms: _70  and  _71
REMARK   31  A    between atoms: _74  and  _76
REMARK   32  A    between atoms: _76  and  _77
REMARK   33  A    between atoms: _76  and  _79
REMARK   34  A    between atoms: _79  and  _80
REMARK   35  A    between atoms: _83  and  _85
REMARK   36  A    between atoms: _85  and  _86
REMARK   37  A    between atoms: _85  and  _88
REMARK   38  A    between atoms: _88  and  _89
REMARK   39  A    between atoms: _92  and  _94
REMARK   40  A    between atoms: _94  and  _95
REMARK   41  A    between atoms: _94  and  _97
REMARK   42  A    between atoms: _100  and  _102
REMARK   43  A    between atoms: _102  and  _103
REMARK   44  A    between atoms: _102  and  _105
REMARK   45  A    between atoms: _105  and  _106
REMARK   46  A    between atoms: _106  and  _107
REMARK   47  A    between atoms: _107  and  _108
REMARK   48  A    between atoms: _108  and  _109
REMARK   49  A    between atoms: _113  and  _115
REMARK   50  A    between atoms: _115  and  _116
REMARK   51  A    between atoms: _115  and  _118
REMARK   52  A    between atoms: _118  and  _119
REMARK   53  A    between atoms: _119  and  _120
REMARK   54  A    between atoms: _122  and  _124
REMARK   55  A    between atoms: _124  and  _125
REMARK   56  A    between atoms: _124  and  _127
REMARK   57  A    between atoms: _127  and  _128
REMARK   58  A    between atoms: _131  and  _133
REMARK   59  A    between atoms: _133  and  _134
REMARK   60  A    between atoms: _136  and  _138
REMARK   61  A    between atoms: _138  and  _139
REMARK   62  A    between atoms: _141  and  _143
REMARK   63  A    between atoms: _143  and  _144
REMARK   64  A    between atoms: _143  and  _146
REMARK   65  A    between atoms: _146  and  _147
REMARK   66  A    between atoms: _150  and  _152
REMARK   67  A    between atoms: _152  and  _153
REMARK   68  A    between atoms: _155  and  _157
REMARK   69  A    between atoms: _157  and  _158
REMARK   70  A    between atoms: _160  and  _162
REMARK   71  A    between atoms: _162  and  _163
REMARK   72  A    between atoms: _162  and  _165
REMARK   73  A    between atoms: _165  and  _166
REMARK   74  A    between atoms: _172  and  _174
REMARK   75  A    between atoms: _174  and  _175
REMARK   76  A    between atoms: _174  and  _177
REMARK   77  A    between atoms: _177  and  _178
REMARK   78  A    between atoms: _181  and  _183
REMARK   79  A    between atoms: _183  and  _184
REMARK   80  A    between atoms: _183  and  _186
REMARK   81  A    between atoms: _189  and  _191
REMARK   82  A    between atoms: _191  and  _192
REMARK   83  A    between atoms: _191  and  _194
REMARK   84  A    between atoms: _194  and  _195
REMARK   85  A    between atoms: _198  and  _200
REMARK   86  A    between atoms: _200  and  _201
REMARK   87  A    between atoms: _200  and  _203
REMARK   88  A    between atoms: _203  and  _204
REMARK   89  A    between atoms: _208  and  _209
REMARK   90  A    between atoms: _214  and  _216
REMARK   91  A    between atoms: _216  and  _217
REMARK   92  A    between atoms: _220  and  _222
REMARK   93  A    between atoms: _222  and  _223
REMARK   94  A    between atoms: _222  and  _225
REMARK   95  A    between atoms: _225  and  _226
REMARK   96  A    between atoms: _231  and  _233
REMARK   97  A    between atoms: _233  and  _234
REMARK   98  A    between atoms: _233  and  _236
REMARK   99  A    between atoms: _236  and  _237
REMARK  100  A    between atoms: _240  and  _242
REMARK  101  A    between atoms: _242  and  _243
REMARK  102  A    between atoms: _242  and  _245
REMARK  103  A    between atoms: _245  and  _246
REMARK  104  A    between atoms: _249  and  _251
REMARK  105  A    between atoms: _251  and  _252
REMARK  106  A    between atoms: _254  and  _256
REMARK  107  A    between atoms: _256  and  _257
REMARK  108  A    between atoms: _256  and  _259
REMARK  109  A    between atoms: _259  and  _260
REMARK  110  A    between atoms: _260  and  _261
REMARK  111  A    between atoms: _261  and  _262
REMARK  112  A    between atoms: _271  and  _273
REMARK  113  A    between atoms: _273  and  _274
REMARK  114  A    between atoms: _273  and  _276
REMARK  115  A    between atoms: _276  and  _277
REMARK  116  A    between atoms: _277  and  _278
REMARK  117  A    between atoms: _278  and  _279
REMARK  118  A    between atoms: _288  and  _290
REMARK  119  A    between atoms: _290  and  _291
REMARK  120  A    between atoms: _290  and  _293
REMARK  121  A    between atoms: _293  and  _294
REMARK  122  A    between atoms: _297  and  _299
REMARK  123  A    between atoms: _299  and  _300
REMARK  124  A    between atoms: _299  and  _302
REMARK  125  A    between atoms: _302  and  _303
REMARK  126  A    between atoms: _306  and  _308
REMARK  127  A    between atoms: _308  and  _309
REMARK  128  A    between atoms: _308  and  _311
REMARK  129  A    between atoms: _311  and  _312
REMARK  130  A    between atoms: _315  and  _317
REMARK  131  A    between atoms: _317  and  _318
REMARK  132  A    between atoms: _317  and  _320
REMARK  133  A    between atoms: _320  and  _321
REMARK  134  A    between atoms: _324  and  _326
REMARK  135  A    between atoms: _326  and  _327
REMARK  136  A    between atoms: _329  and  _331
REMARK  137  A    between atoms: _331  and  _332
REMARK  138  A    between atoms: _335  and  _337
REMARK  139  A    between atoms: _337  and  _338
REMARK  140  A    between atoms: _337  and  _340
REMARK  141  A    between atoms: _340  and  _341
REMARK  142  A    between atoms: _344  and  _346
REMARK  143  A    between atoms: _346  and  _347
REMARK  144  A    between atoms: _346  and  _349
REMARK  145  A    between atoms: _349  and  _350
REMARK  146  A    between atoms: _353  and  _355
REMARK  147  A    between atoms: _355  and  _356
REMARK  148  A    between atoms: _355  and  _358
REMARK  149  A    between atoms: _358  and  _359
REMARK  150  A    between atoms: _362  and  _364
REMARK  151  A    between atoms: _364  and  _365
REMARK  152  A    between atoms: _364  and  _367
REMARK  153  A    between atoms: _370  and  _372
REMARK  154  A    between atoms: _372  and  _373
REMARK  155  A    between atoms: _372  and  _375
REMARK  156  A    between atoms: _375  and  _376
REMARK  157  A    between atoms: _379  and  _381
REMARK  158  A    between atoms: _381  and  _382
REMARK  159  A    between atoms: _384  and  _386
REMARK  160  A    between atoms: _386  and  _387
REMARK  161  A    between atoms: _389  and  _391
REMARK  162  A    between atoms: _391  and  _392
REMARK  163  A    between atoms: _391  and  _394
REMARK  164  A    between atoms: _394  and  _395
REMARK  165  A    between atoms: _398  and  _400
REMARK  166  A    between atoms: _400  and  _401
REMARK  167  A    between atoms: _403  and  _405
REMARK  168  A    between atoms: _405  and  _406
REMARK  169  A    between atoms: _408  and  _410
REMARK  170  A    between atoms: _410  and  _411
REMARK  171  A    between atoms: _410  and  _413
REMARK  172  A    between atoms: _413  and  _414
REMARK  173  A    between atoms: _417  and  _419
REMARK  174  A    between atoms: _419  and  _420
REMARK  175  A    between atoms: _419  and  _422
REMARK  176  A    between atoms: _422  and  _423
REMARK  177  A    between atoms: _427  and  _428
REMARK  178  A    between atoms: _433  and  _435
REMARK  179  A    between atoms: _435  and  _436
REMARK  180  A    between atoms: _439  and  _441
REMARK  181  A    between atoms: _441  and  _442
REMARK  182  A    between atoms: _441  and  _444
REMARK  183  A    between atoms: _444  and  _445
REMARK  184  A    between atoms: _450  and  _452
REMARK  185  A    between atoms: _452  and  _453
REMARK  186  A    between atoms: _452  and  _455
REMARK  187  A    between atoms: _455  and  _456
REMARK  188  A    between atoms: _459  and  _461
REMARK  189  A    between atoms: _461  and  _462
REMARK  190  A    between atoms: _461  and  _464
REMARK  191  A    between atoms: _464  and  _465
REMARK  192  A    between atoms: _468  and  _470
REMARK  193  A    between atoms: _470  and  _471
REMARK  194  A    between atoms: _473  and  _475
REMARK  195  A    between atoms: _475  and  _476
REMARK  196  A    between atoms: _475  and  _478
REMARK  197  A    between atoms: _478  and  _479
REMARK  198  A    between atoms: _479  and  _480
REMARK  199  A    between atoms: _480  and  _481
REMARK  200  A    between atoms: _490  and  _492
REMARK  201  A    between atoms: _492  and  _493
REMARK  202  A    between atoms: _492  and  _495
REMARK  203  A    between atoms: _495  and  _496
REMARK                            x       y       z     vdW  Elec       q    Type
REMARK                         _______ _______ _______ _____ _____    ______ ____
ROOT
ATOM      1  O   HOH     1      20.442  31.798  11.977  0.00  0.00    +0.000 OA
ENDROOT
TORSDOF 0
REMARK  Name = ../refined-set-2016/2idw/2idw_pocket.pdb
REMARK  203 active torsions:
REMARK  status: ('A' for Active; 'I' for Inactive)
REMARK    1  A    between atoms: _1  and  _3
REMARK    2  A    between atoms: _3  and  _4
REMARK    3  A    between atoms: _3  and  _6
REMARK    4  A    between atoms: _6  and  _7
REMARK    5  A    between atoms: _7  and  _8
REMARK    6  A    between atoms: _8  and  _9
REMARK    7  A    between atoms: _18  and  _20
REMARK    8  A    between atoms: _20  and  _21
REMARK    9  A    between atoms: _20  and  _23
REMARK   10  A    between atoms: _23  and  _24
REMARK   11  A    between atoms: _27  and  _29
REMARK   12  A    between atoms: _29  and  _30
REMARK   13  A    between atoms: _29  and  _32
REMARK   14  A    between atoms: _32  and  _33
REMARK   15  A    between atoms: _36  and  _38
REMARK   16  A    between atoms: _38  and  _39
REMARK   17  A    between atoms: _38  and  _41
REMARK   18  A    between atoms: _41  and  _42
REMARK   19  A    between atoms: _45  and  _47
REMARK   20  A    between atoms: _47  and  _48
REMARK   21  A    between atoms: _47  and  _50
REMARK   22  A    between atoms: _50  and  _51
REMARK   23  A    between atoms: _54  and  _56
REMARK   24  A    between atoms: _56  and  _57
REMARK   25  A    between atoms: _59  and  _61
REMARK   26  A    between atoms: _61  and  _62
REMARK   27  A    between atoms: _65  and  _67
REMARK   28  A    between atoms: _67  and  _68
REMARK   29  A    between atoms: _67  and  _70
REMARK   30  A    between atoms: _70  and  _71
REMARK   31  A    between atoms: _74  and  _76
REMARK   32  A    between atoms: _76  and  _77
REMARK   33  A    between atoms: _76  and  _79
REMARK   34  A    between atoms: _79  and  _80
REMARK   35  A    between atoms: _83  and  _85
REMARK   36  A    between atoms: _85  and  _86
REMARK   37  A    between atoms: _85  and  _88
REMARK   38  A    between atoms: _88  and  _89
REMARK   39  A    between atoms: _92  and  _94
REMARK   40  A    between atoms: _94  and  _95
REMARK   41  A    between atoms: _94  and  _97
REMARK   42  A    between atoms: _100  and  _102
REMARK   43  A    between atoms: _102  and  _103
REMARK   44  A    between atoms: _102  and  _105
REMARK   45  A    between atoms: _105  and  _106
REMARK   46  A    between atoms: _106  and  _107
REMARK   47  A    between atoms: _107  and  _108
REMARK   48  A    between atoms: _108  and  _109
REMARK   49  A    between atoms: _113  and  _115
REMARK   50  A    between atoms: _115  and  _116
REMARK   51  A    between atoms: _115  and  _118
REMARK   52  A    between atoms: _118  and  _119
REMARK   53  A    between atoms: _119  and  _120
REMARK   54  A    between atoms: _122  and  _124
REMARK   55  A    between atoms: _124  and  _125
REMARK   56  A    between atoms: _124  and  _127
REMARK   57  A    between atoms: _127  and  _128
REMARK   58  A    between atoms: _131  and  _133
REMARK   59  A    between atoms: _133  and  _134
REMARK   60  A    between atoms: _136  and  _138
REMARK   61  A    between atoms: _138  and  _139
REMARK   62  A    between atoms: _141  and  _143
REMARK   63  A    between atoms: _143  and  _144
REMARK   64  A    between atoms: _143  and  _146
REMARK   65  A    between atoms: _146  and  _147
REMARK   66  A    between atoms: _150  and  _152
REMARK   67  A    between atoms: _152  and  _153
REMARK   68  A    between atoms: _155  and  _157
REMARK   69  A    between atoms: _157  and  _158
REMARK   70  A    between atoms: _160  and  _162
REMARK   71  A    between atoms: _162  and  _163
REMARK   72  A    between atoms: _162  and  _165
REMARK   73  A    between atoms: _165  and  _166
REMARK   74  A    between atoms: _172  and  _174
REMARK   75  A    between atoms: _174  and  _175
REMARK   76  A    between atoms: _174  and  _177
REMARK   77  A    between atoms: _177  and  _178
REMARK   78  A    between atoms: _181  and  _183
REMARK   79  A    between atoms: _183  and  _184
REMARK   80  A    between atoms: _183  and  _186
REMARK   81  A    between atoms: _189  and  _191
REMARK   82  A    between atoms: _191  and  _192
REMARK   83  A    between atoms: _191  and  _194
REMARK   84  A    between atoms: _194  and  _195
REMARK   85  A    between atoms: _198  and  _200
REMARK   86  A    between atoms: _200  and  _201
REMARK   87  A    between atoms: _200  and  _203
REMARK   88  A    between atoms: _203  and  _204
REMARK   89  A    between atoms: _208  and  _209
REMARK   90  A    between atoms: _214  and  _216
REMARK   91  A    between atoms: _216  and  _217
REMARK   92  A    between atoms: _220  and  _222
REMARK   93  A    between atoms: _222  and  _223
REMARK   94  A    between atoms: _222  and  _225
REMARK   95  A    between atoms: _225  and  _226
REMARK   96  A    between atoms: _231  and  _233
REMARK   97  A    between atoms: _233  and  _234
REMARK   98  A    between atoms: _233  and  _236
REMARK   99  A    between atoms: _236  and  _237
REMARK  100  A    between atoms: _240  and  _242
REMARK  101  A    between atoms: _242  and  _243
REMARK  102  A    between atoms: _242  and  _245
REMARK  103  A    between atoms: _245  and  _246
REMARK  104  A    between atoms: _249  and  _251
REMARK  105  A    between atoms: _251  and  _252
REMARK  106  A    between atoms: _254  and  _256
REMARK  107  A    between atoms: _256  and  _257
REMARK  108  A    between atoms: _256  and  _259
REMARK  109  A    between atoms: _259  and  _260
REMARK  110  A    between atoms: _260  and  _261
REMARK  111  A    between atoms: _261  and  _262
REMARK  112  A    between atoms: _271  and  _273
REMARK  113  A    between atoms: _273  and  _274
REMARK  114  A    between atoms: _273  and  _276
REMARK  115  A    between atoms: _276  and  _277
REMARK  116  A    between atoms: _277  and  _278
REMARK  117  A    between atoms: _278  and  _279
REMARK  118  A    between atoms: _288  and  _290
REMARK  119  A    between atoms: _290  and  _291
REMARK  120  A    between atoms: _290  and  _293
REMARK  121  A    between atoms: _293  and  _294
REMARK  122  A    between atoms: _297  and  _299
REMARK  123  A    between atoms: _299  and  _300
REMARK  124  A    between atoms: _299  and  _302
REMARK  125  A    between atoms: _302  and  _303
REMARK  126  A    between atoms: _306  and  _308
REMARK  127  A    between atoms: _308  and  _309
REMARK  128  A    between atoms: _308  and  _311
REMARK  129  A    between atoms: _311  and  _312
REMARK  130  A    between atoms: _315  and  _317
REMARK  131  A    between atoms: _317  and  _318
REMARK  132  A    between atoms: _317  and  _320
REMARK  133  A    between atoms: _320  and  _321
REMARK  134  A    between atoms: _324  and  _326
REMARK  135  A    between atoms: _326  and  _327
REMARK  136  A    between atoms: _329  and  _331
REMARK  137  A    between atoms: _331  and  _332
REMARK  138  A    between atoms: _335  and  _337
REMARK  139  A    between atoms: _337  and  _338
REMARK  140  A    between atoms: _337  and  _340
REMARK  141  A    between atoms: _340  and  _341
REMARK  142  A    between atoms: _344  and  _346
REMARK  143  A    between atoms: _346  and  _347
REMARK  144  A    between atoms: _346  and  _349
REMARK  145  A    between atoms: _349  and  _350
REMARK  146  A    between atoms: _353  and  _355
REMARK  147  A    between atoms: _355  and  _356
REMARK  148  A    between atoms: _355  and  _358
REMARK  149  A    between atoms: _358  and  _359
REMARK  150  A    between atoms: _362  and  _364
REMARK  151  A    between atoms: _364  and  _365
REMARK  152  A    between atoms: _364  and  _367
REMARK  153  A    between atoms: _370  and  _372
REMARK  154  A    between atoms: _372  and  _373
REMARK  155  A    between atoms: _372  and  _375
REMARK  156  A    between atoms: _375  and  _376
REMARK  157  A    between atoms: _379  and  _381
REMARK  158  A    between atoms: _381  and  _382
REMARK  159  A    between atoms: _384  and  _386
REMARK  160  A    between atoms: _386  and  _387
REMARK  161  A    between atoms: _389  and  _391
REMARK  162  A    between atoms: _391  and  _392
REMARK  163  A    between atoms: _391  and  _394
REMARK  164  A    between atoms: _394  and  _395
REMARK  165  A    between atoms: _398  and  _400
REMARK  166  A    between atoms: _400  and  _401
REMARK  167  A    between atoms: _403  and  _405
REMARK  168  A    between atoms: _405  and  _406
REMARK  169  A    between atoms: _408  and  _410
REMARK  170  A    between atoms: _410  and  _411
REMARK  171  A    between atoms: _410  and  _413
REMARK  172  A    between atoms: _413  and  _414
REMARK  173  A    between atoms: _417  and  _419
REMARK  174  A    between atoms: _419  and  _420
REMARK  175  A    between atoms: _419  and  _422
REMARK  176  A    between atoms: _422  and  _423
REMARK  177  A    between atoms: _427  and  _428
REMARK  178  A    between atoms: _433  and  _435
REMARK  179  A    between atoms: _435  and  _436
REMARK  180  A    between atoms: _439  and  _441
REMARK  181  A    between atoms: _441  and  _442
REMARK  182  A    between atoms: _441  and  _444
REMARK  183  A    between atoms: _444  and  _445
REMARK  184  A    between atoms: _450  and  _452
REMARK  185  A    between atoms: _452  and  _453
REMARK  186  A    between atoms: _452  and  _455
REMARK  187  A    between atoms: _455  and  _456
REMARK  188  A    between atoms: _459  and  _461
REMARK  189  A    between atoms: _461  and  _462
REMARK  190  A    between atoms: _461  and  _464
REMARK  191  A    between atoms: _464  and  _465
REMARK  192  A    between atoms: _468  and  _470
REMARK  193  A    between atoms: _470  and  _471
REMARK  194  A    between atoms: _473  and  _475
REMARK  195  A    between atoms: _475  and  _476
REMARK  196  A    between atoms: _475  and  _478
REMARK  197  A    between atoms: _478  and  _479
REMARK  198  A    between atoms: _479  and  _480
REMARK  199  A    between atoms: _480  and  _481
REMARK  200  A    between atoms: _490  and  _492
REMARK  201  A    between atoms: _492  and  _493
REMARK  202  A    between atoms: _492  and  _495
REMARK  203  A    between atoms: _495  and  _496
REMARK                            x       y       z     vdW  Elec       q    Type
REMARK                         _______ _______ _______ _____ _____    ______ ____
ROOT
ATOM      1  O   HOH     1      19.933  21.339  16.088  0.00  0.00    +0.000 OA
ENDROOT
TORSDOF 0
REMARK  Name = ../refined-set-2016/2idw/2idw_pocket.pdb
REMARK  203 active torsions:
REMARK  status: ('A' for Active; 'I' for Inactive)
REMARK    1  A    between atoms: _1  and  _3
REMARK    2  A    between atoms: _3  and  _4
REMARK    3  A    between atoms: _3  and  _6
REMARK    4  A    between atoms: _6  and  _7
REMARK    5  A    between atoms: _7  and  _8
REMARK    6  A    between atoms: _8  and  _9
REMARK    7  A    between atoms: _18  and  _20
REMARK    8  A    between atoms: _20  and  _21
REMARK    9  A    between atoms: _20  and  _23
REMARK   10  A    between atoms: _23  and  _24
REMARK   11  A    between atoms: _27  and  _29
REMARK   12  A    between atoms: _29  and  _30
REMARK   13  A    between atoms: _29  and  _32
REMARK   14  A    between atoms: _32  and  _33
REMARK   15  A    between atoms: _36  and  _38
REMARK   16  A    between atoms: _38  and  _39
REMARK   17  A    between atoms: _38  and  _41
REMARK   18  A    between atoms: _41  and  _42
REMARK   19  A    between atoms: _45  and  _47
REMARK   20  A    between atoms: _47  and  _48
REMARK   21  A    between atoms: _47  and  _50
REMARK   22  A    between atoms: _50  and  _51
REMARK   23  A    between atoms: _54  and  _56
REMARK   24  A    between atoms: _56  and  _57
REMARK   25  A    between atoms: _59  and  _61
REMARK   26  A    between atoms: _61  and  _62
REMARK   27  A    between atoms: _65  and  _67
REMARK   28  A    between atoms: _67  and  _68
REMARK   29  A    between atoms: _67  and  _70
REMARK   30  A    between atoms: _70  and  _71
REMARK   31  A    between atoms: _74  and  _76
REMARK   32  A    between atoms: _76  and  _77
REMARK   33  A    between atoms: _76  and  _79
REMARK   34  A    between atoms: _79  and  _80
REMARK   35  A    between atoms: _83  and  _85
REMARK   36  A    between atoms: _85  and  _86
REMARK   37  A    between atoms: _85  and  _88
REMARK   38  A    between atoms: _88  and  _89
REMARK   39  A    between atoms: _92  and  _94
REMARK   40  A    between atoms: _94  and  _95
REMARK   41  A    between atoms: _94  and  _97
REMARK   42  A    between atoms: _100  and  _102
REMARK   43  A    between atoms: _102  and  _103
REMARK   44  A    between atoms: _102  and  _105
REMARK   45  A    between atoms: _105  and  _106
REMARK   46  A    between atoms: _106  and  _107
REMARK   47  A    between atoms: _107  and  _108
REMARK   48  A    between atoms: _108  and  _109
REMARK   49  A    between atoms: _113  and  _115
REMARK   50  A    between atoms: _115  and  _116
REMARK   51  A    between atoms: _115  and  _118
REMARK   52  A    between atoms: _118  and  _119
REMARK   53  A    between atoms: _119  and  _120
REMARK   54  A    between atoms: _122  and  _124
REMARK   55  A    between atoms: _124  and  _125
REMARK   56  A    between atoms: _124  and  _127
REMARK   57  A    between atoms: _127  and  _128
REMARK   58  A    between atoms: _131  and  _133
REMARK   59  A    between atoms: _133  and  _134
REMARK   60  A    between atoms: _136  and  _138
REMARK   61  A    between atoms: _138  and  _139
REMARK   62  A    between atoms: _141  and  _143
REMARK   63  A    between atoms: _143  and  _144
REMARK   64  A    between atoms: _143  and  _146
REMARK   65  A    between atoms: _146  and  _147
REMARK   66  A    between atoms: _150  and  _152
REMARK   67  A    between atoms: _152  and  _153
REMARK   68  A    between atoms: _155  and  _157
REMARK   69  A    between atoms: _157  and  _158
REMARK   70  A    between atoms: _160  and  _162
REMARK   71  A    between atoms: _162  and  _163
REMARK   72  A    between atoms: _162  and  _165
REMARK   73  A    between atoms: _165  and  _166
REMARK   74  A    between atoms: _172  and  _174
REMARK   75  A    between atoms: _174  and  _175
REMARK   76  A    between atoms: _174  and  _177
REMARK   77  A    between atoms: _177  and  _178
REMARK   78  A    between atoms: _181  and  _183
REMARK   79  A    between atoms: _183  and  _184
REMARK   80  A    between atoms: _183  and  _186
REMARK   81  A    between atoms: _189  and  _191
REMARK   82  A    between atoms: _191  and  _192
REMARK   83  A    between atoms: _191  and  _194
REMARK   84  A    between atoms: _194  and  _195
REMARK   85  A    between atoms: _198  and  _200
REMARK   86  A    between atoms: _200  and  _201
REMARK   87  A    between atoms: _200  and  _203
REMARK   88  A    between atoms: _203  and  _204
REMARK   89  A    between atoms: _208  and  _209
REMARK   90  A    between atoms: _214  and  _216
REMARK   91  A    between atoms: _216  and  _217
REMARK   92  A    between atoms: _220  and  _222
REMARK   93  A    between atoms: _222  and  _223
REMARK   94  A    between atoms: _222  and  _225
REMARK   95  A    between atoms: _225  and  _226
REMARK   96  A    between atoms: _231  and  _233
REMARK   97  A    between atoms: _233  and  _234
REMARK   98  A    between atoms: _233  and  _236
REMARK   99  A    between atoms: _236  and  _237
REMARK  100  A    between atoms: _240  and  _242
REMARK  101  A    between atoms: _242  and  _243
REMARK  102  A    between atoms: _242  and  _245
REMARK  103  A    between atoms: _245  and  _246
REMARK  104  A    between atoms: _249  and  _251
REMARK  105  A    between atoms: _251  and  _252
REMARK  106  A    between atoms: _254  and  _256
REMARK  107  A    between atoms: _256  and  _257
REMARK  108  A    between atoms: _256  and  _259
REMARK  109  A    between atoms: _259  and  _260
REMARK  110  A    between atoms: _260  and  _261
REMARK  111  A    between atoms: _261  and  _262
REMARK  112  A    between atoms: _271  and  _273
REMARK  113  A    between atoms: _273  and  _274
REMARK  114  A    between atoms: _273  and  _276
REMARK  115  A    between atoms: _276  and  _277
REMARK  116  A    between atoms: _277  and  _278
REMARK  117  A    between atoms: _278  and  _279
REMARK  118  A    between atoms: _288  and  _290
REMARK  119  A    between atoms: _290  and  _291
REMARK  120  A    between atoms: _290  and  _293
REMARK  121  A    between atoms: _293  and  _294
REMARK  122  A    between atoms: _297  and  _299
REMARK  123  A    between atoms: _299  and  _300
REMARK  124  A    between atoms: _299  and  _302
REMARK  125  A    between atoms: _302  and  _303
REMARK  126  A    between atoms: _306  and  _308
REMARK  127  A    between atoms: _308  and  _309
REMARK  128  A    between atoms: _308  and  _311
REMARK  129  A    between atoms: _311  and  _312
REMARK  130  A    between atoms: _315  and  _317
REMARK  131  A    between atoms: _317  and  _318
REMARK  132  A    between atoms: _317  and  _320
REMARK  133  A    between atoms: _320  and  _321
REMARK  134  A    between atoms: _324  and  _326
REMARK  135  A    between atoms: _326  and  _327
REMARK  136  A    between atoms: _329  and  _331
REMARK  137  A    between atoms: _331  and  _332
REMARK  138  A    between atoms: _335  and  _337
REMARK  139  A    between atoms: _337  and  _338
REMARK  140  A    between atoms: _337  and  _340
REMARK  141  A    between atoms: _340  and  _341
REMARK  142  A    between atoms: _344  and  _346
REMARK  143  A    between atoms: _346  and  _347
REMARK  144  A    between atoms: _346  and  _349
REMARK  145  A    between atoms: _349  and  _350
REMARK  146  A    between atoms: _353  and  _355
REMARK  147  A    between atoms: _355  and  _356
REMARK  148  A    between atoms: _355  and  _358
REMARK  149  A    between atoms: _358  and  _359
REMARK  150  A    between atoms: _362  and  _364
REMARK  151  A    between atoms: _364  and  _365
REMARK  152  A    between atoms: _364  and  _367
REMARK  153  A    between atoms: _370  and  _372
REMARK  154  A    between atoms: _372  and  _373
REMARK  155  A    between atoms: _372  and  _375
REMARK  156  A    between atoms: _375  and  _376
REMARK  157  A    between atoms: _379  and  _381
REMARK  158  A    between atoms: _381  and  _382
REMARK  159  A    between atoms: _384  and  _386
REMARK  160  A    between atoms: _386  and  _387
REMARK  161  A    between atoms: _389  and  _391
REMARK  162  A    between atoms: _391  and  _392
REMARK  163  A    between atoms: _391  and  _394
REMARK  164  A    between atoms: _394  and  _395
REMARK  165  A    between atoms: _398  and  _400
REMARK  166  A    between atoms: _400  and  _401
REMARK  167  A    between atoms: _403  and  _405
REMARK  168  A    between atoms: _405  and  _406
REMARK  169  A    between atoms: _408  and  _410
REMARK  170  A    between atoms: _410  and  _411
REMARK  171  A    between atoms: _410  and  _413
REMARK  172  A    between atoms: _413  and  _414
REMARK  173  A    between atoms: _417  and  _419
REMARK  174  A    between atoms: _419  and  _420
REMARK  175  A    between atoms: _419  and  _422
REMARK  176  A    between atoms: _422  and  _423
REMARK  177  A    between atoms: _427  and  _428
REMARK  178  A    between atoms: _433  and  _435
REMARK  179  A    between atoms: _435  and  _436
REMARK  180  A    between atoms: _439  and  _441
REMARK  181  A    between atoms: _441  and  _442
REMARK  182  A    between atoms: _441  and  _444
REMARK  183  A    between atoms: _444  and  _445
REMARK  184  A    between atoms: _450  and  _452
REMARK  185  A    between atoms: _452  and  _453
REMARK  186  A    between atoms: _452  and  _455
REMARK  187  A    between atoms: _455  and  _456
REMARK  188  A    between atoms: _459  and  _461
REMARK  189  A    between atoms: _461  and  _462
REMARK  190  A    between atoms: _461  and  _464
REMARK  191  A    between atoms: _464  and  _465
REMARK  192  A    between atoms: _468  and  _470
REMARK  193  A    between atoms: _470  and  _471
REMARK  194  A    between atoms: _473  and  _475
REMARK  195  A    between atoms: _475  and  _476
REMARK  196  A    between atoms: _475  and  _478
REMARK  197  A    between atoms: _478  and  _479
REMARK  198  A    between atoms: _479  and  _480
REMARK  199  A    between atoms: _480  and  _481
REMARK  200  A    between atoms: _490  and  _492
REMARK  201  A    between atoms: _492  and  _493
REMARK  202  A    between atoms: _492  and  _495
REMARK  203  A    between atoms: _495  and  _496
REMARK                            x       y       z     vdW  Elec       q    Type
REMARK                         _______ _______ _______ _____ _____    ______ ____
ROOT
ATOM      1  O   HOH     1      30.858  23.156  12.238  0.00  0.00    +0.000 OA
ENDROOT
TORSDOF 0
REMARK  Name = ../refined-set-2016/2idw/2idw_pocket.pdb
REMARK  203 active torsions:
REMARK  status: ('A' for Active; 'I' for Inactive)
REMARK    1  A    between atoms: _1  and  _3
REMARK    2  A    between atoms: _3  and  _4
REMARK    3  A    between atoms: _3  and  _6
REMARK    4  A    between atoms: _6  and  _7
REMARK    5  A    between atoms: _7  and  _8
REMARK    6  A    between atoms: _8  and  _9
REMARK    7  A    between atoms: _18  and  _20
REMARK    8  A    between atoms: _20  and  _21
REMARK    9  A    between atoms: _20  and  _23
REMARK   10  A    between atoms: _23  and  _24
REMARK   11  A    between atoms: _27  and  _29
REMARK   12  A    between atoms: _29  and  _30
REMARK   13  A    between atoms: _29  and  _32
REMARK   14  A    between atoms: _32  and  _33
REMARK   15  A    between atoms: _36  and  _38
REMARK   16  A    between atoms: _38  and  _39
REMARK   17  A    between atoms: _38  and  _41
REMARK   18  A    between atoms: _41  and  _42
REMARK   19  A    between atoms: _45  and  _47
REMARK   20  A    between atoms: _47  and  _48
REMARK   21  A    between atoms: _47  and  _50
REMARK   22  A    between atoms: _50  and  _51
REMARK   23  A    between atoms: _54  and  _56
REMARK   24  A    between atoms: _56  and  _57
REMARK   25  A    between atoms: _59  and  _61
REMARK   26  A    between atoms: _61  and  _62
REMARK   27  A    between atoms: _65  and  _67
REMARK   28  A    between atoms: _67  and  _68
REMARK   29  A    between atoms: _67  and  _70
REMARK   30  A    between atoms: _70  and  _71
REMARK   31  A    between atoms: _74  and  _76
REMARK   32  A    between atoms: _76  and  _77
REMARK   33  A    between atoms: _76  and  _79
REMARK   34  A    between atoms: _79  and  _80
REMARK   35  A    between atoms: _83  and  _85
REMARK   36  A    between atoms: _85  and  _86
REMARK   37  A    between atoms: _85  and  _88
REMARK   38  A    between atoms: _88  and  _89
REMARK   39  A    between atoms: _92  and  _94
REMARK   40  A    between atoms: _94  and  _95
REMARK   41  A    between atoms: _94  and  _97
REMARK   42  A    between atoms: _100  and  _102
REMARK   43  A    between atoms: _102  and  _103
REMARK   44  A    between atoms: _102  and  _105
REMARK   45  A    between atoms: _105  and  _106
REMARK   46  A    between atoms: _106  and  _107
REMARK   47  A    between atoms: _107  and  _108
REMARK   48  A    between atoms: _108  and  _109
REMARK   49  A    between atoms: _113  and  _115
REMARK   50  A    between atoms: _115  and  _116
REMARK   51  A    between atoms: _115  and  _118
REMARK   52  A    between atoms: _118  and  _119
REMARK   53  A    between atoms: _119  and  _120
REMARK   54  A    between atoms: _122  and  _124
REMARK   55  A    between atoms: _124  and  _125
REMARK   56  A    between atoms: _124  and  _127
REMARK   57  A    between atoms: _127  and  _128
REMARK   58  A    between atoms: _131  and  _133
REMARK   59  A    between atoms: _133  and  _134
REMARK   60  A    between atoms: _136  and  _138
REMARK   61  A    between atoms: _138  and  _139
REMARK   62  A    between atoms: _141  and  _143
REMARK   63  A    between atoms: _143  and  _144
REMARK   64  A    between atoms: _143  and  _146
REMARK   65  A    between atoms: _146  and  _147
REMARK   66  A    between atoms: _150  and  _152
REMARK   67  A    between atoms: _152  and  _153
REMARK   68  A    between atoms: _155  and  _157
REMARK   69  A    between atoms: _157  and  _158
REMARK   70  A    between atoms: _160  and  _162
REMARK   71  A    between atoms: _162  and  _163
REMARK   72  A    between atoms: _162  and  _165
REMARK   73  A    between atoms: _165  and  _166
REMARK   74  A    between atoms: _172  and  _174
REMARK   75  A    between atoms: _174  and  _175
REMARK   76  A    between atoms: _174  and  _177
REMARK   77  A    between atoms: _177  and  _178
REMARK   78  A    between atoms: _181  and  _183
REMARK   79  A    between atoms: _183  and  _184
REMARK   80  A    between atoms: _183  and  _186
REMARK   81  A    between atoms: _189  and  _191
REMARK   82  A    between atoms: _191  and  _192
REMARK   83  A    between atoms: _191  and  _194
REMARK   84  A    between atoms: _194  and  _195
REMARK   85  A    between atoms: _198  and  _200
REMARK   86  A    between atoms: _200  and  _201
REMARK   87  A    between atoms: _200  and  _203
REMARK   88  A    between atoms: _203  and  _204
REMARK   89  A    between atoms: _208  and  _209
REMARK   90  A    between atoms: _214  and  _216
REMARK   91  A    between atoms: _216  and  _217
REMARK   92  A    between atoms: _220  and  _222
REMARK   93  A    between atoms: _222  and  _223
REMARK   94  A    between atoms: _222  and  _225
REMARK   95  A    between atoms: _225  and  _226
REMARK   96  A    between atoms: _231  and  _233
REMARK   97  A    between atoms: _233  and  _234
REMARK   98  A    between atoms: _233  and  _236
REMARK   99  A    between atoms: _236  and  _237
REMARK  100  A    between atoms: _240  and  _242
REMARK  101  A    between atoms: _242  and  _243
REMARK  102  A    between atoms: _242  and  _245
REMARK  103  A    between atoms: _245  and  _246
REMARK  104  A    between atoms: _249  and  _251
REMARK  105  A    between atoms: _251  and  _252
REMARK  106  A    between atoms: _254  and  _256
REMARK  107  A    between atoms: _256  and  _257
REMARK  108  A    between atoms: _256  and  _259
REMARK  109  A    between atoms: _259  and  _260
REMARK  110  A    between atoms: _260  and  _261
REMARK  111  A    between atoms: _261  and  _262
REMARK  112  A    between atoms: _271  and  _273
REMARK  113  A    between atoms: _273  and  _274
REMARK  114  A    between atoms: _273  and  _276
REMARK  115  A    between atoms: _276  and  _277
REMARK  116  A    between atoms: _277  and  _278
REMARK  117  A    between atoms: _278  and  _279
REMARK  118  A    between atoms: _288  and  _290
REMARK  119  A    between atoms: _290  and  _291
REMARK  120  A    between atoms: _290  and  _293
REMARK  121  A    between atoms: _293  and  _294
REMARK  122  A    between atoms: _297  and  _299
REMARK  123  A    between atoms: _299  and  _300
REMARK  124  A    between atoms: _299  and  _302
REMARK  125  A    between atoms: _302  and  _303
REMARK  126  A    between atoms: _306  and  _308
REMARK  127  A    between atoms: _308  and  _309
REMARK  128  A    between atoms: _308  and  _311
REMARK  129  A    between atoms: _311  and  _312
REMARK  130  A    between atoms: _315  and  _317
REMARK  131  A    between atoms: _317  and  _318
REMARK  132  A    between atoms: _317  and  _320
REMARK  133  A    between atoms: _320  and  _321
REMARK  134  A    between atoms: _324  and  _326
REMARK  135  A    between atoms: _326  and  _327
REMARK  136  A    between atoms: _329  and  _331
REMARK  137  A    between atoms: _331  and  _332
REMARK  138  A    between atoms: _335  and  _337
REMARK  139  A    between atoms: _337  and  _338
REMARK  140  A    between atoms: _337  and  _340
REMARK  141  A    between atoms: _340  and  _341
REMARK  142  A    between atoms: _344  and  _346
REMARK  143  A    between atoms: _346  and  _347
REMARK  144  A    between atoms: _346  and  _349
REMARK  145  A    between atoms: _349  and  _350
REMARK  146  A    between atoms: _353  and  _355
REMARK  147  A    between atoms: _355  and  _356
REMARK  148  A    between atoms: _355  and  _358
REMARK  149  A    between atoms: _358  and  _359
REMARK  150  A    between atoms: _362  and  _364
REMARK  151  A    between atoms: _364  and  _365
REMARK  152  A    between atoms: _364  and  _367
REMARK  153  A    between atoms: _370  and  _372
REMARK  154  A    between atoms: _372  and  _373
REMARK  155  A    between atoms: _372  and  _375
REMARK  156  A    between atoms: _375  and  _376
REMARK  157  A    between atoms: _379  and  _381
REMARK  158  A    between atoms: _381  and  _382
REMARK  159  A    between atoms: _384  and  _386
REMARK  160  A    between atoms: _386  and  _387
REMARK  161  A    between atoms: _389  and  _391
REMARK  162  A    between atoms: _391  and  _392
REMARK  163  A    between atoms: _391  and  _394
REMARK  164  A    between atoms: _394  and  _395
REMARK  165  A    between atoms: _398  and  _400
REMARK  166  A    between atoms: _400  and  _401
REMARK  167  A    between atoms: _403  and  _405
REMARK  168  A    between atoms: _405  and  _406
REMARK  169  A    between atoms: _408  and  _410
REMARK  170  A    between atoms: _410  and  _411
REMARK  171  A    between atoms: _410  and  _413
REMARK  172  A    between atoms: _413  and  _414
REMARK  173  A    between atoms: _417  and  _419
REMARK  174  A    between atoms: _419  and  _420
REMARK  175  A    between atoms: _419  and  _422
REMARK  176  A    between atoms: _422  and  _423
REMARK  177  A    between atoms: _427  and  _428
REMARK  178  A    between atoms: _433  and  _435
REMARK  179  A    between atoms: _435  and  _436
REMARK  180  A    between atoms: _439  and  _441
REMARK  181  A    between atoms: _441  and  _442
REMARK  182  A    between atoms: _441  and  _444
REMARK  183  A    between atoms: _444  and  _445
REMARK  184  A    between atoms: _450  and  _452
REMARK  185  A    between atoms: _452  and  _453
REMARK  186  A    between atoms: _452  and  _455
REMARK  187  A    between atoms: _455  and  _456
REMARK  188  A    between atoms: _459  and  _461
REMARK  189  A    between atoms: _461  and  _462
REMARK  190  A    between atoms: _461  and  _464
REMARK  191  A    between atoms: _464  and  _465
REMARK  192  A    between atoms: _468  and  _470
REMARK  193  A    between atoms: _470  and  _471
REMARK  194  A    between atoms: _473  and  _475
REMARK  195  A    between atoms: _475  and  _476
REMARK  196  A    between atoms: _475  and  _478
REMARK  197  A    between atoms: _478  and  _479
REMARK  198  A    between atoms: _479  and  _480
REMARK  199  A    between atoms: _480  and  _481
REMARK  200  A    between atoms: _490  and  _492
REMARK  201  A    between atoms: _492  and  _493
REMARK  202  A    between atoms: _492  and  _495
REMARK  203  A    between atoms: _495  and  _496
REMARK                            x       y       z     vdW  Elec       q    Type
REMARK                         _______ _______ _______ _____ _____    ______ ____
ROOT
ATOM      1  O   HOH     1      22.916  35.832  20.739  0.00  0.00    +0.000 OA
ENDROOT
TORSDOF 0
REMARK  Name = ../refined-set-2016/2idw/2idw_pocket.pdb
REMARK  203 active torsions:
REMARK  status: ('A' for Active; 'I' for Inactive)
REMARK    1  A    between atoms: _1  and  _3
REMARK    2  A    between atoms: _3  and  _4
REMARK    3  A    between atoms: _3  and  _6
REMARK    4  A    between atoms: _6  and  _7
REMARK    5  A    between atoms: _7  and  _8
REMARK    6  A    between atoms: _8  and  _9
REMARK    7  A    between atoms: _18  and  _20
REMARK    8  A    between atoms: _20  and  _21
REMARK    9  A    between atoms: _20  and  _23
REMARK   10  A    between atoms: _23  and  _24
REMARK   11  A    between atoms: _27  and  _29
REMARK   12  A    between atoms: _29  and  _30
REMARK   13  A    between atoms: _29  and  _32
REMARK   14  A    between atoms: _32  and  _33
REMARK   15  A    between atoms: _36  and  _38
REMARK   16  A    between atoms: _38  and  _39
REMARK   17  A    between atoms: _38  and  _41
REMARK   18  A    between atoms: _41  and  _42
REMARK   19  A    between atoms: _45  and  _47
REMARK   20  A    between atoms: _47  and  _48
REMARK   21  A    between atoms: _47  and  _50
REMARK   22  A    between atoms: _50  and  _51
REMARK   23  A    between atoms: _54  and  _56
REMARK   24  A    between atoms: _56  and  _57
REMARK   25  A    between atoms: _59  and  _61
REMARK   26  A    between atoms: _61  and  _62
REMARK   27  A    between atoms: _65  and  _67
REMARK   28  A    between atoms: _67  and  _68
REMARK   29  A    between atoms: _67  and  _70
REMARK   30  A    between atoms: _70  and  _71
REMARK   31  A    between atoms: _74  and  _76
REMARK   32  A    between atoms: _76  and  _77
REMARK   33  A    between atoms: _76  and  _79
REMARK   34  A    between atoms: _79  and  _80
REMARK   35  A    between atoms: _83  and  _85
REMARK   36  A    between atoms: _85  and  _86
REMARK   37  A    between atoms: _85  and  _88
REMARK   38  A    between atoms: _88  and  _89
REMARK   39  A    between atoms: _92  and  _94
REMARK   40  A    between atoms: _94  and  _95
REMARK   41  A    between atoms: _94  and  _97
REMARK   42  A    between atoms: _100  and  _102
REMARK   43  A    between atoms: _102  and  _103
REMARK   44  A    between atoms: _102  and  _105
REMARK   45  A    between atoms: _105  and  _106
REMARK   46  A    between atoms: _106  and  _107
REMARK   47  A    between atoms: _107  and  _108
REMARK   48  A    between atoms: _108  and  _109
REMARK   49  A    between atoms: _113  and  _115
REMARK   50  A    between atoms: _115  and  _116
REMARK   51  A    between atoms: _115  and  _118
REMARK   52  A    between atoms: _118  and  _119
REMARK   53  A    between atoms: _119  and  _120
REMARK   54  A    between atoms: _122  and  _124
REMARK   55  A    between atoms: _124  and  _125
REMARK   56  A    between atoms: _124  and  _127
REMARK   57  A    between atoms: _127  and  _128
REMARK   58  A    between atoms: _131  and  _133
REMARK   59  A    between atoms: _133  and  _134
REMARK   60  A    between atoms: _136  and  _138
REMARK   61  A    between atoms: _138  and  _139
REMARK   62  A    between atoms: _141  and  _143
REMARK   63  A    between atoms: _143  and  _144
REMARK   64  A    between atoms: _143  and  _146
REMARK   65  A    between atoms: _146  and  _147
REMARK   66  A    between atoms: _150  and  _152
REMARK   67  A    between atoms: _152  and  _153
REMARK   68  A    between atoms: _155  and  _157
REMARK   69  A    between atoms: _157  and  _158
REMARK   70  A    between atoms: _160  and  _162
REMARK   71  A    between atoms: _162  and  _163
REMARK   72  A    between atoms: _162  and  _165
REMARK   73  A    between atoms: _165  and  _166
REMARK   74  A    between atoms: _172  and  _174
REMARK   75  A    between atoms: _174  and  _175
REMARK   76  A    between atoms: _174  and  _177
REMARK   77  A    between atoms: _177  and  _178
REMARK   78  A    between atoms: _181  and  _183
REMARK   79  A    between atoms: _183  and  _184
REMARK   80  A    between atoms: _183  and  _186
REMARK   81  A    between atoms: _189  and  _191
REMARK   82  A    between atoms: _191  and  _192
REMARK   83  A    between atoms: _191  and  _194
REMARK   84  A    between atoms: _194  and  _195
REMARK   85  A    between atoms: _198  and  _200
REMARK   86  A    between atoms: _200  and  _201
REMARK   87  A    between atoms: _200  and  _203
REMARK   88  A    between atoms: _203  and  _204
REMARK   89  A    between atoms: _208  and  _209
REMARK   90  A    between atoms: _214  and  _216
REMARK   91  A    between atoms: _216  and  _217
REMARK   92  A    between atoms: _220  and  _222
REMARK   93  A    between atoms: _222  and  _223
REMARK   94  A    between atoms: _222  and  _225
REMARK   95  A    between atoms: _225  and  _226
REMARK   96  A    between atoms: _231  and  _233
REMARK   97  A    between atoms: _233  and  _234
REMARK   98  A    between atoms: _233  and  _236
REMARK   99  A    between atoms: _236  and  _237
REMARK  100  A    between atoms: _240  and  _242
REMARK  101  A    between atoms: _242  and  _243
REMARK  102  A    between atoms: _242  and  _245
REMARK  103  A    between atoms: _245  and  _246
REMARK  104  A    between atoms: _249  and  _251
REMARK  105  A    between atoms: _251  and  _252
REMARK  106  A    between atoms: _254  and  _256
REMARK  107  A    between atoms: _256  and  _257
REMARK  108  A    between atoms: _256  and  _259
REMARK  109  A    between atoms: _259  and  _260
REMARK  110  A    between atoms: _260  and  _261
REMARK  111  A    between atoms: _261  and  _262
REMARK  112  A    between atoms: _271  and  _273
REMARK  113  A    between atoms: _273  and  _274
REMARK  114  A    between atoms: _273  and  _276
REMARK  115  A    between atoms: _276  and  _277
REMARK  116  A    between atoms: _277  and  _278
REMARK  117  A    between atoms: _278  and  _279
REMARK  118  A    between atoms: _288  and  _290
REMARK  119  A    between atoms: _290  and  _291
REMARK  120  A    between atoms: _290  and  _293
REMARK  121  A    between atoms: _293  and  _294
REMARK  122  A    between atoms: _297  and  _299
REMARK  123  A    between atoms: _299  and  _300
REMARK  124  A    between atoms: _299  and  _302
REMARK  125  A    between atoms: _302  and  _303
REMARK  126  A    between atoms: _306  and  _308
REMARK  127  A    between atoms: _308  and  _309
REMARK  128  A    between atoms: _308  and  _311
REMARK  129  A    between atoms: _311  and  _312
REMARK  130  A    between atoms: _315  and  _317
REMARK  131  A    between atoms: _317  and  _318
REMARK  132  A    between atoms: _317  and  _320
REMARK  133  A    between atoms: _320  and  _321
REMARK  134  A    between atoms: _324  and  _326
REMARK  135  A    between atoms: _326  and  _327
REMARK  136  A    between atoms: _329  and  _331
REMARK  137  A    between atoms: _331  and  _332
REMARK  138  A    between atoms: _335  and  _337
REMARK  139  A    between atoms: _337  and  _338
REMARK  140  A    between atoms: _337  and  _340
REMARK  141  A    between atoms: _340  and  _341
REMARK  142  A    between atoms: _344  and  _346
REMARK  143  A    between atoms: _346  and  _347
REMARK  144  A    between atoms: _346  and  _349
REMARK  145  A    between atoms: _349  and  _350
REMARK  146  A    between atoms: _353  and  _355
REMARK  147  A    between atoms: _355  and  _356
REMARK  148  A    between atoms: _355  and  _358
REMARK  149  A    between atoms: _358  and  _359
REMARK  150  A    between atoms: _362  and  _364
REMARK  151  A    between atoms: _364  and  _365
REMARK  152  A    between atoms: _364  and  _367
REMARK  153  A    between atoms: _370  and  _372
REMARK  154  A    between atoms: _372  and  _373
REMARK  155  A    between atoms: _372  and  _375
REMARK  156  A    between atoms: _375  and  _376
REMARK  157  A    between atoms: _379  and  _381
REMARK  158  A    between atoms: _381  and  _382
REMARK  159  A    between atoms: _384  and  _386
REMARK  160  A    between atoms: _386  and  _387
REMARK  161  A    between atoms: _389  and  _391
REMARK  162  A    between atoms: _391  and  _392
REMARK  163  A    between atoms: _391  and  _394
REMARK  164  A    between atoms: _394  and  _395
REMARK  165  A    between atoms: _398  and  _400
REMARK  166  A    between atoms: _400  and  _401
REMARK  167  A    between atoms: _403  and  _405
REMARK  168  A    between atoms: _405  and  _406
REMARK  169  A    between atoms: _408  and  _410
REMARK  170  A    between atoms: _410  and  _411
REMARK  171  A    between atoms: _410  and  _413
REMARK  172  A    between atoms: _413  and  _414
REMARK  173  A    between atoms: _417  and  _419
REMARK  174  A    between atoms: _419  and  _420
REMARK  175  A    between atoms: _419  and  _422
REMARK  176  A    between atoms: _422  and  _423
REMARK  177  A    between atoms: _427  and  _428
REMARK  178  A    between atoms: _433  and  _435
REMARK  179  A    between atoms: _435  and  _436
REMARK  180  A    between atoms: _439  and  _441
REMARK  181  A    between atoms: _441  and  _442
REMARK  182  A    between atoms: _441  and  _444
REMARK  183  A    between atoms: _444  and  _445
REMARK  184  A    between atoms: _450  and  _452
REMARK  185  A    between atoms: _452  and  _453
REMARK  186  A    between atoms: _452  and  _455
REMARK  187  A    between atoms: _455  and  _456
REMARK  188  A    between atoms: _459  and  _461
REMARK  189  A    between atoms: _461  and  _462
REMARK  190  A    between atoms: _461  and  _464
REMARK  191  A    between atoms: _464  and  _465
REMARK  192  A    between atoms: _468  and  _470
REMARK  193  A    between atoms: _470  and  _471
REMARK  194  A    between atoms: _473  and  _475
REMARK  195  A    between atoms: _475  and  _476
REMARK  196  A    between atoms: _475  and  _478
REMARK  197  A    between atoms: _478  and  _479
REMARK  198  A    between atoms: _479  and  _480
REMARK  199  A    between atoms: _480  and  _481
REMARK  200  A    between atoms: _490  and  _492
REMARK  201  A    between atoms: _492  and  _493
REMARK  202  A    between atoms: _492  and  _495
REMARK  203  A    between atoms: _495  and  _496
REMARK                            x       y       z     vdW  Elec       q    Type
REMARK                         _______ _______ _______ _____ _____    ______ ____
ROOT
ATOM      1  O   HOH     1      23.155  25.102   5.473  0.00  0.00    +0.000 OA
ENDROOT
TORSDOF 0
REMARK  Name = ../refined-set-2016/2idw/2idw_pocket.pdb
REMARK  203 active torsions:
REMARK  status: ('A' for Active; 'I' for Inactive)
REMARK    1  A    between atoms: _1  and  _3
REMARK    2  A    between atoms: _3  and  _4
REMARK    3  A    between atoms: _3  and  _6
REMARK    4  A    between atoms: _6  and  _7
REMARK    5  A    between atoms: _7  and  _8
REMARK    6  A    between atoms: _8  and  _9
REMARK    7  A    between atoms: _18  and  _20
REMARK    8  A    between atoms: _20  and  _21
REMARK    9  A    between atoms: _20  and  _23
REMARK   10  A    between atoms: _23  and  _24
REMARK   11  A    between atoms: _27  and  _29
REMARK   12  A    between atoms: _29  and  _30
REMARK   13  A    between atoms: _29  and  _32
REMARK   14  A    between atoms: _32  and  _33
REMARK   15  A    between atoms: _36  and  _38
REMARK   16  A    between atoms: _38  and  _39
REMARK   17  A    between atoms: _38  and  _41
REMARK   18  A    between atoms: _41  and  _42
REMARK   19  A    between atoms: _45  and  _47
REMARK   20  A    between atoms: _47  and  _48
REMARK   21  A    between atoms: _47  and  _50
REMARK   22  A    between atoms: _50  and  _51
REMARK   23  A    between atoms: _54  and  _56
REMARK   24  A    between atoms: _56  and  _57
REMARK   25  A    between atoms: _59  and  _61
REMARK   26  A    between atoms: _61  and  _62
REMARK   27  A    between atoms: _65  and  _67
REMARK   28  A    between atoms: _67  and  _68
REMARK   29  A    between atoms: _67  and  _70
REMARK   30  A    between atoms: _70  and  _71
REMARK   31  A    between atoms: _74  and  _76
REMARK   32  A    between atoms: _76  and  _77
REMARK   33  A    between atoms: _76  and  _79
REMARK   34  A    between atoms: _79  and  _80
REMARK   35  A    between atoms: _83  and  _85
REMARK   36  A    between atoms: _85  and  _86
REMARK   37  A    between atoms: _85  and  _88
REMARK   38  A    between atoms: _88  and  _89
REMARK   39  A    between atoms: _92  and  _94
REMARK   40  A    between atoms: _94  and  _95
REMARK   41  A    between atoms: _94  and  _97
REMARK   42  A    between atoms: _100  and  _102
REMARK   43  A    between atoms: _102  and  _103
REMARK   44  A    between atoms: _102  and  _105
REMARK   45  A    between atoms: _105  and  _106
REMARK   46  A    between atoms: _106  and  _107
REMARK   47  A    between atoms: _107  and  _108
REMARK   48  A    between atoms: _108  and  _109
REMARK   49  A    between atoms: _113  and  _115
REMARK   50  A    between atoms: _115  and  _116
REMARK   51  A    between atoms: _115  and  _118
REMARK   52  A    between atoms: _118  and  _119
REMARK   53  A    between atoms: _119  and  _120
REMARK   54  A    between atoms: _122  and  _124
REMARK   55  A    between atoms: _124  and  _125
REMARK   56  A    between atoms: _124  and  _127
REMARK   57  A    between atoms: _127  and  _128
REMARK   58  A    between atoms: _131  and  _133
REMARK   59  A    between atoms: _133  and  _134
REMARK   60  A    between atoms: _136  and  _138
REMARK   61  A    between atoms: _138  and  _139
REMARK   62  A    between atoms: _141  and  _143
REMARK   63  A    between atoms: _143  and  _144
REMARK   64  A    between atoms: _143  and  _146
REMARK   65  A    between atoms: _146  and  _147
REMARK   66  A    between atoms: _150  and  _152
REMARK   67  A    between atoms: _152  and  _153
REMARK   68  A    between atoms: _155  and  _157
REMARK   69  A    between atoms: _157  and  _158
REMARK   70  A    between atoms: _160  and  _162
REMARK   71  A    between atoms: _162  and  _163
REMARK   72  A    between atoms: _162  and  _165
REMARK   73  A    between atoms: _165  and  _166
REMARK   74  A    between atoms: _172  and  _174
REMARK   75  A    between atoms: _174  and  _175
REMARK   76  A    between atoms: _174  and  _177
REMARK   77  A    between atoms: _177  and  _178
REMARK   78  A    between atoms: _181  and  _183
REMARK   79  A    between atoms: _183  and  _184
REMARK   80  A    between atoms: _183  and  _186
REMARK   81  A    between atoms: _189  and  _191
REMARK   82  A    between atoms: _191  and  _192
REMARK   83  A    between atoms: _191  and  _194
REMARK   84  A    between atoms: _194  and  _195
REMARK   85  A    between atoms: _198  and  _200
REMARK   86  A    between atoms: _200  and  _201
REMARK   87  A    between atoms: _200  and  _203
REMARK   88  A    between atoms: _203  and  _204
REMARK   89  A    between atoms: _208  and  _209
REMARK   90  A    between atoms: _214  and  _216
REMARK   91  A    between atoms: _216  and  _217
REMARK   92  A    between atoms: _220  and  _222
REMARK   93  A    between atoms: _222  and  _223
REMARK   94  A    between atoms: _222  and  _225
REMARK   95  A    between atoms: _225  and  _226
REMARK   96  A    between atoms: _231  and  _233
REMARK   97  A    between atoms: _233  and  _234
REMARK   98  A    between atoms: _233  and  _236
REMARK   99  A    between atoms: _236  and  _237
REMARK  100  A    between atoms: _240  and  _242
REMARK  101  A    between atoms: _242  and  _243
REMARK  102  A    between atoms: _242  and  _245
REMARK  103  A    between atoms: _245  and  _246
REMARK  104  A    between atoms: _249  and  _251
REMARK  105  A    between atoms: _251  and  _252
REMARK  106  A    between atoms: _254  and  _256
REMARK  107  A    between atoms: _256  and  _257
REMARK  108  A    between atoms: _256  and  _259
REMARK  109  A    between atoms: _259  and  _260
REMARK  110  A    between atoms: _260  and  _261
REMARK  111  A    between atoms: _261  and  _262
REMARK  112  A    between atoms: _271  and  _273
REMARK  113  A    between atoms: _273  and  _274
REMARK  114  A    between atoms: _273  and  _276
REMARK  115  A    between atoms: _276  and  _277
REMARK  116  A    between atoms: _277  and  _278
REMARK  117  A    between atoms: _278  and  _279
REMARK  118  A    between atoms: _288  and  _290
REMARK  119  A    between atoms: _290  and  _291
REMARK  120  A    between atoms: _290  and  _293
REMARK  121  A    between atoms: _293  and  _294
REMARK  122  A    between atoms: _297  and  _299
REMARK  123  A    between atoms: _299  and  _300
REMARK  124  A    between atoms: _299  and  _302
REMARK  125  A    between atoms: _302  and  _303
REMARK  126  A    between atoms: _306  and  _308
REMARK  127  A    between atoms: _308  and  _309
REMARK  128  A    between atoms: _308  and  _311
REMARK  129  A    between atoms: _311  and  _312
REMARK  130  A    between atoms: _315  and  _317
REMARK  131  A    between atoms: _317  and  _318
REMARK  132  A    between atoms: _317  and  _320
REMARK  133  A    between atoms: _320  and  _321
REMARK  134  A    between atoms: _324  and  _326
REMARK  135  A    between atoms: _326  and  _327
REMARK  136  A    between atoms: _329  and  _331
REMARK  137  A    between atoms: _331  and  _332
REMARK  138  A    between atoms: _335  and  _337
REMARK  139  A    between atoms: _337  and  _338
REMARK  140  A    between atoms: _337  and  _340
REMARK  141  A    between atoms: _340  and  _341
REMARK  142  A    between atoms: _344  and  _346
REMARK  143  A    between atoms: _346  and  _347
REMARK  144  A    between atoms: _346  and  _349
REMARK  145  A    between atoms: _349  and  _350
REMARK  146  A    between atoms: _353  and  _355
REMARK  147  A    between atoms: _355  and  _356
REMARK  148  A    between atoms: _355  and  _358
REMARK  149  A    between atoms: _358  and  _359
REMARK  150  A    between atoms: _362  and  _364
REMARK  151  A    between atoms: _364  and  _365
REMARK  152  A    between atoms: _364  and  _367
REMARK  153  A    between atoms: _370  and  _372
REMARK  154  A    between atoms: _372  and  _373
REMARK  155  A    between atoms: _372  and  _375
REMARK  156  A    between atoms: _375  and  _376
REMARK  157  A    between atoms: _379  and  _381
REMARK  158  A    between atoms: _381  and  _382
REMARK  159  A    between atoms: _384  and  _386
REMARK  160  A    between atoms: _386  and  _387
REMARK  161  A    between atoms: _389  and  _391
REMARK  162  A    between atoms: _391  and  _392
REMARK  163  A    between atoms: _391  and  _394
REMARK  164  A    between atoms: _394  and  _395
REMARK  165  A    between atoms: _398  and  _400
REMARK  166  A    between atoms: _400  and  _401
REMARK  167  A    between atoms: _403  and  _405
REMARK  168  A    between atoms: _405  and  _406
REMARK  169  A    between atoms: _408  and  _410
REMARK  170  A    between atoms: _410  and  _411
REMARK  171  A    between atoms: _410  and  _413
REMARK  172  A    between atoms: _413  and  _414
REMARK  173  A    between atoms: _417  and  _419
REMARK  174  A    between atoms: _419  and  _420
REMARK  175  A    between atoms: _419  and  _422
REMARK  176  A    between atoms: _422  and  _423
REMARK  177  A    between atoms: _427  and  _428
REMARK  178  A    between atoms: _433  and  _435
REMARK  179  A    between atoms: _435  and  _436
REMARK  180  A    between atoms: _439  and  _441
REMARK  181  A    between atoms: _441  and  _442
REMARK  182  A    between atoms: _441  and  _444
REMARK  183  A    between atoms: _444  and  _445
REMARK  184  A    between atoms: _450  and  _452
REMARK  185  A    between atoms: _452  and  _453
REMARK  186  A    between atoms: _452  and  _455
REMARK  187  A    between atoms: _455  and  _456
REMARK  188  A    between atoms: _459  and  _461
REMARK  189  A    between atoms: _461  and  _462
REMARK  190  A    between atoms: _461  and  _464
REMARK  191  A    between atoms: _464  and  _465
REMARK  192  A    between atoms: _468  and  _470
REMARK  193  A    between atoms: _470  and  _471
REMARK  194  A    between atoms: _473  and  _475
REMARK  195  A    between atoms: _475  and  _476
REMARK  196  A    between atoms: _475  and  _478
REMARK  197  A    between atoms: _478  and  _479
REMARK  198  A    between atoms: _479  and  _480
REMARK  199  A    between atoms: _480  and  _481
REMARK  200  A    between atoms: _490  and  _492
REMARK  201  A    between atoms: _492  and  _493
REMARK  202  A    between atoms: _492  and  _495
REMARK  203  A    between atoms: _495  and  _496
REMARK                            x       y       z     vdW  Elec       q    Type
REMARK                         _______ _______ _______ _____ _____    ______ ____
ROOT
ATOM      1  O   HOH     1      29.649  36.192  19.580  0.00  0.00    +0.000 OA
ENDROOT
TORSDOF 0
REMARK  Name = ../refined-set-2016/2idw/2idw_pocket.pdb
REMARK  203 active torsions:
REMARK  status: ('A' for Active; 'I' for Inactive)
REMARK    1  A    between atoms: _1  and  _3
REMARK    2  A    between atoms: _3  and  _4
REMARK    3  A    between atoms: _3  and  _6
REMARK    4  A    between atoms: _6  and  _7
REMARK    5  A    between atoms: _7  and  _8
REMARK    6  A    between atoms: _8  and  _9
REMARK    7  A    between atoms: _18  and  _20
REMARK    8  A    between atoms: _20  and  _21
REMARK    9  A    between atoms: _20  and  _23
REMARK   10  A    between atoms: _23  and  _24
REMARK   11  A    between atoms: _27  and  _29
REMARK   12  A    between atoms: _29  and  _30
REMARK   13  A    between atoms: _29  and  _32
REMARK   14  A    between atoms: _32  and  _33
REMARK   15  A    between atoms: _36  and  _38
REMARK   16  A    between atoms: _38  and  _39
REMARK   17  A    between atoms: _38  and  _41
REMARK   18  A    between atoms: _41  and  _42
REMARK   19  A    between atoms: _45  and  _47
REMARK   20  A    between atoms: _47  and  _48
REMARK   21  A    between atoms: _47  and  _50
REMARK   22  A    between atoms: _50  and  _51
REMARK   23  A    between atoms: _54  and  _56
REMARK   24  A    between atoms: _56  and  _57
REMARK   25  A    between atoms: _59  and  _61
REMARK   26  A    between atoms: _61  and  _62
REMARK   27  A    between atoms: _65  and  _67
REMARK   28  A    between atoms: _67  and  _68
REMARK   29  A    between atoms: _67  and  _70
REMARK   30  A    between atoms: _70  and  _71
REMARK   31  A    between atoms: _74  and  _76
REMARK   32  A    between atoms: _76  and  _77
REMARK   33  A    between atoms: _76  and  _79
REMARK   34  A    between atoms: _79  and  _80
REMARK   35  A    between atoms: _83  and  _85
REMARK   36  A    between atoms: _85  and  _86
REMARK   37  A    between atoms: _85  and  _88
REMARK   38  A    between atoms: _88  and  _89
REMARK   39  A    between atoms: _92  and  _94
REMARK   40  A    between atoms: _94  and  _95
REMARK   41  A    between atoms: _94  and  _97
REMARK   42  A    between atoms: _100  and  _102
REMARK   43  A    between atoms: _102  and  _103
REMARK   44  A    between atoms: _102  and  _105
REMARK   45  A    between atoms: _105  and  _106
REMARK   46  A    between atoms: _106  and  _107
REMARK   47  A    between atoms: _107  and  _108
REMARK   48  A    between atoms: _108  and  _109
REMARK   49  A    between atoms: _113  and  _115
REMARK   50  A    between atoms: _115  and  _116
REMARK   51  A    between atoms: _115  and  _118
REMARK   52  A    between atoms: _118  and  _119
REMARK   53  A    between atoms: _119  and  _120
REMARK   54  A    between atoms: _122  and  _124
REMARK   55  A    between atoms: _124  and  _125
REMARK   56  A    between atoms: _124  and  _127
REMARK   57  A    between atoms: _127  and  _128
REMARK   58  A    between atoms: _131  and  _133
REMARK   59  A    between atoms: _133  and  _134
REMARK   60  A    between atoms: _136  and  _138
REMARK   61  A    between atoms: _138  and  _139
REMARK   62  A    between atoms: _141  and  _143
REMARK   63  A    between atoms: _143  and  _144
REMARK   64  A    between atoms: _143  and  _146
REMARK   65  A    between atoms: _146  and  _147
REMARK   66  A    between atoms: _150  and  _152
REMARK   67  A    between atoms: _152  and  _153
REMARK   68  A    between atoms: _155  and  _157
REMARK   69  A    between atoms: _157  and  _158
REMARK   70  A    between atoms: _160  and  _162
REMARK   71  A    between atoms: _162  and  _163
REMARK   72  A    between atoms: _162  and  _165
REMARK   73  A    between atoms: _165  and  _166
REMARK   74  A    between atoms: _172  and  _174
REMARK   75  A    between atoms: _174  and  _175
REMARK   76  A    between atoms: _174  and  _177
REMARK   77  A    between atoms: _177  and  _178
REMARK   78  A    between atoms: _181  and  _183
REMARK   79  A    between atoms: _183  and  _184
REMARK   80  A    between atoms: _183  and  _186
REMARK   81  A    between atoms: _189  and  _191
REMARK   82  A    between atoms: _191  and  _192
REMARK   83  A    between atoms: _191  and  _194
REMARK   84  A    between atoms: _194  and  _195
REMARK   85  A    between atoms: _198  and  _200
REMARK   86  A    between atoms: _200  and  _201
REMARK   87  A    between atoms: _200  and  _203
REMARK   88  A    between atoms: _203  and  _204
REMARK   89  A    between atoms: _208  and  _209
REMARK   90  A    between atoms: _214  and  _216
REMARK   91  A    between atoms: _216  and  _217
REMARK   92  A    between atoms: _220  and  _222
REMARK   93  A    between atoms: _222  and  _223
REMARK   94  A    between atoms: _222  and  _225
REMARK   95  A    between atoms: _225  and  _226
REMARK   96  A    between atoms: _231  and  _233
REMARK   97  A    between atoms: _233  and  _234
REMARK   98  A    between atoms: _233  and  _236
REMARK   99  A    between atoms: _236  and  _237
REMARK  100  A    between atoms: _240  and  _242
REMARK  101  A    between atoms: _242  and  _243
REMARK  102  A    between atoms: _242  and  _245
REMARK  103  A    between atoms: _245  and  _246
REMARK  104  A    between atoms: _249  and  _251
REMARK  105  A    between atoms: _251  and  _252
REMARK  106  A    between atoms: _254  and  _256
REMARK  107  A    between atoms: _256  and  _257
REMARK  108  A    between atoms: _256  and  _259
REMARK  109  A    between atoms: _259  and  _260
REMARK  110  A    between atoms: _260  and  _261
REMARK  111  A    between atoms: _261  and  _262
REMARK  112  A    between atoms: _271  and  _273
REMARK  113  A    between atoms: _273  and  _274
REMARK  114  A    between atoms: _273  and  _276
REMARK  115  A    between atoms: _276  and  _277
REMARK  116  A    between atoms: _277  and  _278
REMARK  117  A    between atoms: _278  and  _279
REMARK  118  A    between atoms: _288  and  _290
REMARK  119  A    between atoms: _290  and  _291
REMARK  120  A    between atoms: _290  and  _293
REMARK  121  A    between atoms: _293  and  _294
REMARK  122  A    between atoms: _297  and  _299
REMARK  123  A    between atoms: _299  and  _300
REMARK  124  A    between atoms: _299  and  _302
REMARK  125  A    between atoms: _302  and  _303
REMARK  126  A    between atoms: _306  and  _308
REMARK  127  A    between atoms: _308  and  _309
REMARK  128  A    between atoms: _308  and  _311
REMARK  129  A    between atoms: _311  and  _312
REMARK  130  A    between atoms: _315  and  _317
REMARK  131  A    between atoms: _317  and  _318
REMARK  132  A    between atoms: _317  and  _320
REMARK  133  A    between atoms: _320  and  _321
REMARK  134  A    between atoms: _324  and  _326
REMARK  135  A    between atoms: _326  and  _327
REMARK  136  A    between atoms: _329  and  _331
REMARK  137  A    between atoms: _331  and  _332
REMARK  138  A    between atoms: _335  and  _337
REMARK  139  A    between atoms: _337  and  _338
REMARK  140  A    between atoms: _337  and  _340
REMARK  141  A    between atoms: _340  and  _341
REMARK  142  A    between atoms: _344  and  _346
REMARK  143  A    between atoms: _346  and  _347
REMARK  144  A    between atoms: _346  and  _349
REMARK  145  A    between atoms: _349  and  _350
REMARK  146  A    between atoms: _353  and  _355
REMARK  147  A    between atoms: _355  and  _356
REMARK  148  A    between atoms: _355  and  _358
REMARK  149  A    between atoms: _358  and  _359
REMARK  150  A    between atoms: _362  and  _364
REMARK  151  A    between atoms: _364  and  _365
REMARK  152  A    between atoms: _364  and  _367
REMARK  153  A    between atoms: _370  and  _372
REMARK  154  A    between atoms: _372  and  _373
REMARK  155  A    between atoms: _372  and  _375
REMARK  156  A    between atoms: _375  and  _376
REMARK  157  A    between atoms: _379  and  _381
REMARK  158  A    between atoms: _381  and  _382
REMARK  159  A    between atoms: _384  and  _386
REMARK  160  A    between atoms: _386  and  _387
REMARK  161  A    between atoms: _389  and  _391
REMARK  162  A    between atoms: _391  and  _392
REMARK  163  A    between atoms: _391  and  _394
REMARK  164  A    between atoms: _394  and  _395
REMARK  165  A    between atoms: _398  and  _400
REMARK  166  A    between atoms: _400  and  _401
REMARK  167  A    between atoms: _403  and  _405
REMARK  168  A    between atoms: _405  and  _406
REMARK  169  A    between atoms: _408  and  _410
REMARK  170  A    between atoms: _410  and  _411
REMARK  171  A    between atoms: _410  and  _413
REMARK  172  A    between atoms: _413  and  _414
REMARK  173  A    between atoms: _417  and  _419
REMARK  174  A    between atoms: _419  and  _420
REMARK  175  A    between atoms: _419  and  _422
REMARK  176  A    between atoms: _422  and  _423
REMARK  177  A    between atoms: _427  and  _428
REMARK  178  A    between atoms: _433  and  _435
REMARK  179  A    between atoms: _435  and  _436
REMARK  180  A    between atoms: _439  and  _441
REMARK  181  A    between atoms: _441  and  _442
REMARK  182  A    between atoms: _441  and  _444
REMARK  183  A    between atoms: _444  and  _445
REMARK  184  A    between atoms: _450  and  _452
REMARK  185  A    between atoms: _452  and  _453
REMARK  186  A    between atoms: _452  and  _455
REMARK  187  A    between atoms: _455  and  _456
REMARK  188  A    between atoms: _459  and  _461
REMARK  189  A    between atoms: _461  and  _462
REMARK  190  A    between atoms: _461  and  _464
REMARK  191  A    between atoms: _464  and  _465
REMARK  192  A    between atoms: _468  and  _470
REMARK  193  A    between atoms: _470  and  _471
REMARK  194  A    between atoms: _473  and  _475
REMARK  195  A    between atoms: _475  and  _476
REMARK  196  A    between atoms: _475  and  _478
REMARK  197  A    between atoms: _478  and  _479
REMARK  198  A    between atoms: _479  and  _480
REMARK  199  A    between atoms: _480  and  _481
REMARK  200  A    between atoms: _490  and  _492
REMARK  201  A    between atoms: _492  and  _493
REMARK  202  A    between atoms: _492  and  _495
REMARK  203  A    between atoms: _495  and  _496
REMARK                            x       y       z     vdW  Elec       q    Type
REMARK                         _______ _______ _______ _____ _____    ______ ____
ROOT
ATOM      1  O   HOH     1      25.896  18.263  13.631  0.00  0.00    +0.000 OA
ENDROOT
TORSDOF 0
REMARK  Name = ../refined-set-2016/2idw/2idw_pocket.pdb
REMARK  203 active torsions:
REMARK  status: ('A' for Active; 'I' for Inactive)
REMARK    1  A    between atoms: _1  and  _3
REMARK    2  A    between atoms: _3  and  _4
REMARK    3  A    between atoms: _3  and  _6
REMARK    4  A    between atoms: _6  and  _7
REMARK    5  A    between atoms: _7  and  _8
REMARK    6  A    between atoms: _8  and  _9
REMARK    7  A    between atoms: _18  and  _20
REMARK    8  A    between atoms: _20  and  _21
REMARK    9  A    between atoms: _20  and  _23
REMARK   10  A    between atoms: _23  and  _24
REMARK   11  A    between atoms: _27  and  _29
REMARK   12  A    between atoms: _29  and  _30
REMARK   13  A    between atoms: _29  and  _32
REMARK   14  A    between atoms: _32  and  _33
REMARK   15  A    between atoms: _36  and  _38
REMARK   16  A    between atoms: _38  and  _39
REMARK   17  A    between atoms: _38  and  _41
REMARK   18  A    between atoms: _41  and  _42
REMARK   19  A    between atoms: _45  and  _47
REMARK   20  A    between atoms: _47  and  _48
REMARK   21  A    between atoms: _47  and  _50
REMARK   22  A    between atoms: _50  and  _51
REMARK   23  A    between atoms: _54  and  _56
REMARK   24  A    between atoms: _56  and  _57
REMARK   25  A    between atoms: _59  and  _61
REMARK   26  A    between atoms: _61  and  _62
REMARK   27  A    between atoms: _65  and  _67
REMARK   28  A    between atoms: _67  and  _68
REMARK   29  A    between atoms: _67  and  _70
REMARK   30  A    between atoms: _70  and  _71
REMARK   31  A    between atoms: _74  and  _76
REMARK   32  A    between atoms: _76  and  _77
REMARK   33  A    between atoms: _76  and  _79
REMARK   34  A    between atoms: _79  and  _80
REMARK   35  A    between atoms: _83  and  _85
REMARK   36  A    between atoms: _85  and  _86
REMARK   37  A    between atoms: _85  and  _88
REMARK   38  A    between atoms: _88  and  _89
REMARK   39  A    between atoms: _92  and  _94
REMARK   40  A    between atoms: _94  and  _95
REMARK   41  A    between atoms: _94  and  _97
REMARK   42  A    between atoms: _100  and  _102
REMARK   43  A    between atoms: _102  and  _103
REMARK   44  A    between atoms: _102  and  _105
REMARK   45  A    between atoms: _105  and  _106
REMARK   46  A    between atoms: _106  and  _107
REMARK   47  A    between atoms: _107  and  _108
REMARK   48  A    between atoms: _108  and  _109
REMARK   49  A    between atoms: _113  and  _115
REMARK   50  A    between atoms: _115  and  _116
REMARK   51  A    between atoms: _115  and  _118
REMARK   52  A    between atoms: _118  and  _119
REMARK   53  A    between atoms: _119  and  _120
REMARK   54  A    between atoms: _122  and  _124
REMARK   55  A    between atoms: _124  and  _125
REMARK   56  A    between atoms: _124  and  _127
REMARK   57  A    between atoms: _127  and  _128
REMARK   58  A    between atoms: _131  and  _133
REMARK   59  A    between atoms: _133  and  _134
REMARK   60  A    between atoms: _136  and  _138
REMARK   61  A    between atoms: _138  and  _139
REMARK   62  A    between atoms: _141  and  _143
REMARK   63  A    between atoms: _143  and  _144
REMARK   64  A    between atoms: _143  and  _146
REMARK   65  A    between atoms: _146  and  _147
REMARK   66  A    between atoms: _150  and  _152
REMARK   67  A    between atoms: _152  and  _153
REMARK   68  A    between atoms: _155  and  _157
REMARK   69  A    between atoms: _157  and  _158
REMARK   70  A    between atoms: _160  and  _162
REMARK   71  A    between atoms: _162  and  _163
REMARK   72  A    between atoms: _162  and  _165
REMARK   73  A    between atoms: _165  and  _166
REMARK   74  A    between atoms: _172  and  _174
REMARK   75  A    between atoms: _174  and  _175
REMARK   76  A    between atoms: _174  and  _177
REMARK   77  A    between atoms: _177  and  _178
REMARK   78  A    between atoms: _181  and  _183
REMARK   79  A    between atoms: _183  and  _184
REMARK   80  A    between atoms: _183  and  _186
REMARK   81  A    between atoms: _189  and  _191
REMARK   82  A    between atoms: _191  and  _192
REMARK   83  A    between atoms: _191  and  _194
REMARK   84  A    between atoms: _194  and  _195
REMARK   85  A    between atoms: _198  and  _200
REMARK   86  A    between atoms: _200  and  _201
REMARK   87  A    between atoms: _200  and  _203
REMARK   88  A    between atoms: _203  and  _204
REMARK   89  A    between atoms: _208  and  _209
REMARK   90  A    between atoms: _214  and  _216
REMARK   91  A    between atoms: _216  and  _217
REMARK   92  A    between atoms: _220  and  _222
REMARK   93  A    between atoms: _222  and  _223
REMARK   94  A    between atoms: _222  and  _225
REMARK   95  A    between atoms: _225  and  _226
REMARK   96  A    between atoms: _231  and  _233
REMARK   97  A    between atoms: _233  and  _234
REMARK   98  A    between atoms: _233  and  _236
REMARK   99  A    between atoms: _236  and  _237
REMARK  100  A    between atoms: _240  and  _242
REMARK  101  A    between atoms: _242  and  _243
REMARK  102  A    between atoms: _242  and  _245
REMARK  103  A    between atoms: _245  and  _246
REMARK  104  A    between atoms: _249  and  _251
REMARK  105  A    between atoms: _251  and  _252
REMARK  106  A    between atoms: _254  and  _256
REMARK  107  A    between atoms: _256  and  _257
REMARK  108  A    between atoms: _256  and  _259
REMARK  109  A    between atoms: _259  and  _260
REMARK  110  A    between atoms: _260  and  _261
REMARK  111  A    between atoms: _261  and  _262
REMARK  112  A    between atoms: _271  and  _273
REMARK  113  A    between atoms: _273  and  _274
REMARK  114  A    between atoms: _273  and  _276
REMARK  115  A    between atoms: _276  and  _277
REMARK  116  A    between atoms: _277  and  _278
REMARK  117  A    between atoms: _278  and  _279
REMARK  118  A    between atoms: _288  and  _290
REMARK  119  A    between atoms: _290  and  _291
REMARK  120  A    between atoms: _290  and  _293
REMARK  121  A    between atoms: _293  and  _294
REMARK  122  A    between atoms: _297  and  _299
REMARK  123  A    between atoms: _299  and  _300
REMARK  124  A    between atoms: _299  and  _302
REMARK  125  A    between atoms: _302  and  _303
REMARK  126  A    between atoms: _306  and  _308
REMARK  127  A    between atoms: _308  and  _309
REMARK  128  A    between atoms: _308  and  _311
REMARK  129  A    between atoms: _311  and  _312
REMARK  130  A    between atoms: _315  and  _317
REMARK  131  A    between atoms: _317  and  _318
REMARK  132  A    between atoms: _317  and  _320
REMARK  133  A    between atoms: _320  and  _321
REMARK  134  A    between atoms: _324  and  _326
REMARK  135  A    between atoms: _326  and  _327
REMARK  136  A    between atoms: _329  and  _331
REMARK  137  A    between atoms: _331  and  _332
REMARK  138  A    between atoms: _335  and  _337
REMARK  139  A    between atoms: _337  and  _338
REMARK  140  A    between atoms: _337  and  _340
REMARK  141  A    between atoms: _340  and  _341
REMARK  142  A    between atoms: _344  and  _346
REMARK  143  A    between atoms: _346  and  _347
REMARK  144  A    between atoms: _346  and  _349
REMARK  145  A    between atoms: _349  and  _350
REMARK  146  A    between atoms: _353  and  _355
REMARK  147  A    between atoms: _355  and  _356
REMARK  148  A    between atoms: _355  and  _358
REMARK  149  A    between atoms: _358  and  _359
REMARK  150  A    between atoms: _362  and  _364
REMARK  151  A    between atoms: _364  and  _365
REMARK  152  A    between atoms: _364  and  _367
REMARK  153  A    between atoms: _370  and  _372
REMARK  154  A    between atoms: _372  and  _373
REMARK  155  A    between atoms: _372  and  _375
REMARK  156  A    between atoms: _375  and  _376
REMARK  157  A    between atoms: _379  and  _381
REMARK  158  A    between atoms: _381  and  _382
REMARK  159  A    between atoms: _384  and  _386
REMARK  160  A    between atoms: _386  and  _387
REMARK  161  A    between atoms: _389  and  _391
REMARK  162  A    between atoms: _391  and  _392
REMARK  163  A    between atoms: _391  and  _394
REMARK  164  A    between atoms: _394  and  _395
REMARK  165  A    between atoms: _398  and  _400
REMARK  166  A    between atoms: _400  and  _401
REMARK  167  A    between atoms: _403  and  _405
REMARK  168  A    between atoms: _405  and  _406
REMARK  169  A    between atoms: _408  and  _410
REMARK  170  A    between atoms: _410  and  _411
REMARK  171  A    between atoms: _410  and  _413
REMARK  172  A    between atoms: _413  and  _414
REMARK  173  A    between atoms: _417  and  _419
REMARK  174  A    between atoms: _419  and  _420
REMARK  175  A    between atoms: _419  and  _422
REMARK  176  A    between atoms: _422  and  _423
REMARK  177  A    between atoms: _427  and  _428
REMARK  178  A    between atoms: _433  and  _435
REMARK  179  A    between atoms: _435  and  _436
REMARK  180  A    between atoms: _439  and  _441
REMARK  181  A    between atoms: _441  and  _442
REMARK  182  A    between atoms: _441  and  _444
REMARK  183  A    between atoms: _444  and  _445
REMARK  184  A    between atoms: _450  and  _452
REMARK  185  A    between atoms: _452  and  _453
REMARK  186  A    between atoms: _452  and  _455
REMARK  187  A    between atoms: _455  and  _456
REMARK  188  A    between atoms: _459  and  _461
REMARK  189  A    between atoms: _461  and  _462
REMARK  190  A    between atoms: _461  and  _464
REMARK  191  A    between atoms: _464  and  _465
REMARK  192  A    between atoms: _468  and  _470
REMARK  193  A    between atoms: _470  and  _471
REMARK  194  A    between atoms: _473  and  _475
REMARK  195  A    between atoms: _475  and  _476
REMARK  196  A    between atoms: _475  and  _478
REMARK  197  A    between atoms: _478  and  _479
REMARK  198  A    between atoms: _479  and  _480
REMARK  199  A    between atoms: _480  and  _481
REMARK  200  A    between atoms: _490  and  _492
REMARK  201  A    between atoms: _492  and  _493
REMARK  202  A    between atoms: _492  and  _495
REMARK  203  A    between atoms: _495  and  _496
REMARK                            x       y       z     vdW  Elec       q    Type
REMARK                         _______ _______ _______ _____ _____    ______ ____
ROOT
ATOM      1  O   UNL     1      27.869  34.580  20.871  0.00  0.00    +0.000 OA
ATOM      2  O   UNL     1      28.861  35.373  21.352  0.00  0.00    +0.000 OA
ENDROOT
TORSDOF 0
REMARK  Name = ../refined-set-2016/2idw/2idw_pocket.pdb
REMARK  203 active torsions:
REMARK  status: ('A' for Active; 'I' for Inactive)
REMARK    1  A    between atoms: _1  and  _3
REMARK    2  A    between atoms: _3  and  _4
REMARK    3  A    between atoms: _3  and  _6
REMARK    4  A    between atoms: _6  and  _7
REMARK    5  A    between atoms: _7  and  _8
REMARK    6  A    between atoms: _8  and  _9
REMARK    7  A    between atoms: _18  and  _20
REMARK    8  A    between atoms: _20  and  _21
REMARK    9  A    between atoms: _20  and  _23
REMARK   10  A    between atoms: _23  and  _24
REMARK   11  A    between atoms: _27  and  _29
REMARK   12  A    between atoms: _29  and  _30
REMARK   13  A    between atoms: _29  and  _32
REMARK   14  A    between atoms: _32  and  _33
REMARK   15  A    between atoms: _36  and  _38
REMARK   16  A    between atoms: _38  and  _39
REMARK   17  A    between atoms: _38  and  _41
REMARK   18  A    between atoms: _41  and  _42
REMARK   19  A    between atoms: _45  and  _47
REMARK   20  A    between atoms: _47  and  _48
REMARK   21  A    between atoms: _47  and  _50
REMARK   22  A    between atoms: _50  and  _51
REMARK   23  A    between atoms: _54  and  _56
REMARK   24  A    between atoms: _56  and  _57
REMARK   25  A    between atoms: _59  and  _61
REMARK   26  A    between atoms: _61  and  _62
REMARK   27  A    between atoms: _65  and  _67
REMARK   28  A    between atoms: _67  and  _68
REMARK   29  A    between atoms: _67  and  _70
REMARK   30  A    between atoms: _70  and  _71
REMARK   31  A    between atoms: _74  and  _76
REMARK   32  A    between atoms: _76  and  _77
REMARK   33  A    between atoms: _76  and  _79
REMARK   34  A    between atoms: _79  and  _80
REMARK   35  A    between atoms: _83  and  _85
REMARK   36  A    between atoms: _85  and  _86
REMARK   37  A    between atoms: _85  and  _88
REMARK   38  A    between atoms: _88  and  _89
REMARK   39  A    between atoms: _92  and  _94
REMARK   40  A    between atoms: _94  and  _95
REMARK   41  A    between atoms: _94  and  _97
REMARK   42  A    between atoms: _100  and  _102
REMARK   43  A    between atoms: _102  and  _103
REMARK   44  A    between atoms: _102  and  _105
REMARK   45  A    between atoms: _105  and  _106
REMARK   46  A    between atoms: _106  and  _107
REMARK   47  A    between atoms: _107  and  _108
REMARK   48  A    between atoms: _108  and  _109
REMARK   49  A    between atoms: _113  and  _115
REMARK   50  A    between atoms: _115  and  _116
REMARK   51  A    between atoms: _115  and  _118
REMARK   52  A    between atoms: _118  and  _119
REMARK   53  A    between atoms: _119  and  _120
REMARK   54  A    between atoms: _122  and  _124
REMARK   55  A    between atoms: _124  and  _125
REMARK   56  A    between atoms: _124  and  _127
REMARK   57  A    between atoms: _127  and  _128
REMARK   58  A    between atoms: _131  and  _133
REMARK   59  A    between atoms: _133  and  _134
REMARK   60  A    between atoms: _136  and  _138
REMARK   61  A    between atoms: _138  and  _139
REMARK   62  A    between atoms: _141  and  _143
REMARK   63  A    between atoms: _143  and  _144
REMARK   64  A    between atoms: _143  and  _146
REMARK   65  A    between atoms: _146  and  _147
REMARK   66  A    between atoms: _150  and  _152
REMARK   67  A    between atoms: _152  and  _153
REMARK   68  A    between atoms: _155  and  _157
REMARK   69  A    between atoms: _157  and  _158
REMARK   70  A    between atoms: _160  and  _162
REMARK   71  A    between atoms: _162  and  _163
REMARK   72  A    between atoms: _162  and  _165
REMARK   73  A    between atoms: _165  and  _166
REMARK   74  A    between atoms: _172  and  _174
REMARK   75  A    between atoms: _174  and  _175
REMARK   76  A    between atoms: _174  and  _177
REMARK   77  A    between atoms: _177  and  _178
REMARK   78  A    between atoms: _181  and  _183
REMARK   79  A    between atoms: _183  and  _184
REMARK   80  A    between atoms: _183  and  _186
REMARK   81  A    between atoms: _189  and  _191
REMARK   82  A    between atoms: _191  and  _192
REMARK   83  A    between atoms: _191  and  _194
REMARK   84  A    between atoms: _194  and  _195
REMARK   85  A    between atoms: _198  and  _200
REMARK   86  A    between atoms: _200  and  _201
REMARK   87  A    between atoms: _200  and  _203
REMARK   88  A    between atoms: _203  and  _204
REMARK   89  A    between atoms: _208  and  _209
REMARK   90  A    between atoms: _214  and  _216
REMARK   91  A    between atoms: _216  and  _217
REMARK   92  A    between atoms: _220  and  _222
REMARK   93  A    between atoms: _222  and  _223
REMARK   94  A    between atoms: _222  and  _225
REMARK   95  A    between atoms: _225  and  _226
REMARK   96  A    between atoms: _231  and  _233
REMARK   97  A    between atoms: _233  and  _234
REMARK   98  A    between atoms: _233  and  _236
REMARK   99  A    between atoms: _236  and  _237
REMARK  100  A    between atoms: _240  and  _242
REMARK  101  A    between atoms: _242  and  _243
REMARK  102  A    between atoms: _242  and  _245
REMARK  103  A    between atoms: _245  and  _246
REMARK  104  A    between atoms: _249  and  _251
REMARK  105  A    between atoms: _251  and  _252
REMARK  106  A    between atoms: _254  and  _256
REMARK  107  A    between atoms: _256  and  _257
REMARK  108  A    between atoms: _256  and  _259
REMARK  109  A    between atoms: _259  and  _260
REMARK  110  A    between atoms: _260  and  _261
REMARK  111  A    between atoms: _261  and  _262
REMARK  112  A    between atoms: _271  and  _273
REMARK  113  A    between atoms: _273  and  _274
REMARK  114  A    between atoms: _273  and  _276
REMARK  115  A    between atoms: _276  and  _277
REMARK  116  A    between atoms: _277  and  _278
REMARK  117  A    between atoms: _278  and  _279
REMARK  118  A    between atoms: _288  and  _290
REMARK  119  A    between atoms: _290  and  _291
REMARK  120  A    between atoms: _290  and  _293
REMARK  121  A    between atoms: _293  and  _294
REMARK  122  A    between atoms: _297  and  _299
REMARK  123  A    between atoms: _299  and  _300
REMARK  124  A    between atoms: _299  and  _302
REMARK  125  A    between atoms: _302  and  _303
REMARK  126  A    between atoms: _306  and  _308
REMARK  127  A    between atoms: _308  and  _309
REMARK  128  A    between atoms: _308  and  _311
REMARK  129  A    between atoms: _311  and  _312
REMARK  130  A    between atoms: _315  and  _317
REMARK  131  A    between atoms: _317  and  _318
REMARK  132  A    between atoms: _317  and  _320
REMARK  133  A    between atoms: _320  and  _321
REMARK  134  A    between atoms: _324  and  _326
REMARK  135  A    between atoms: _326  and  _327
REMARK  136  A    between atoms: _329  and  _331
REMARK  137  A    between atoms: _331  and  _332
REMARK  138  A    between atoms: _335  and  _337
REMARK  139  A    between atoms: _337  and  _338
REMARK  140  A    between atoms: _337  and  _340
REMARK  141  A    between atoms: _340  and  _341
REMARK  142  A    between atoms: _344  and  _346
REMARK  143  A    between atoms: _346  and  _347
REMARK  144  A    between atoms: _346  and  _349
REMARK  145  A    between atoms: _349  and  _350
REMARK  146  A    between atoms: _353  and  _355
REMARK  147  A    between atoms: _355  and  _356
REMARK  148  A    between atoms: _355  and  _358
REMARK  149  A    between atoms: _358  and  _359
REMARK  150  A    between atoms: _362  and  _364
REMARK  151  A    between atoms: _364  and  _365
REMARK  152  A    between atoms: _364  and  _367
REMARK  153  A    between atoms: _370  and  _372
REMARK  154  A    between atoms: _372  and  _373
REMARK  155  A    between atoms: _372  and  _375
REMARK  156  A    between atoms: _375  and  _376
REMARK  157  A    between atoms: _379  and  _381
REMARK  158  A    between atoms: _381  and  _382
REMARK  159  A    between atoms: _384  and  _386
REMARK  160  A    between atoms: _386  and  _387
REMARK  161  A    between atoms: _389  and  _391
REMARK  162  A    between atoms: _391  and  _392
REMARK  163  A    between atoms: _391  and  _394
REMARK  164  A    between atoms: _394  and  _395
REMARK  165  A    between atoms: _398  and  _400
REMARK  166  A    between atoms: _400  and  _401
REMARK  167  A    between atoms: _403  and  _405
REMARK  168  A    between atoms: _405  and  _406
REMARK  169  A    between atoms: _408  and  _410
REMARK  170  A    between atoms: _410  and  _411
REMARK  171  A    between atoms: _410  and  _413
REMARK  172  A    between atoms: _413  and  _414
REMARK  173  A    between atoms: _417  and  _419
REMARK  174  A    between atoms: _419  and  _420
REMARK  175  A    between atoms: _419  and  _422
REMARK  176  A    between atoms: _422  and  _423
REMARK  177  A    between atoms: _427  and  _428
REMARK  178  A    between atoms: _433  and  _435
REMARK  179  A    between atoms: _435  and  _436
REMARK  180  A    between atoms: _439  and  _441
REMARK  181  A    between atoms: _441  and  _442
REMARK  182  A    between atoms: _441  and  _444
REMARK  183  A    between atoms: _444  and  _445
REMARK  184  A    between atoms: _450  and  _452
REMARK  185  A    between atoms: _452  and  _453
REMARK  186  A    between atoms: _452  and  _455
REMARK  187  A    between atoms: _455  and  _456
REMARK  188  A    between atoms: _459  and  _461
REMARK  189  A    between atoms: _461  and  _462
REMARK  190  A    between atoms: _461  and  _464
REMARK  191  A    between atoms: _464  and  _465
REMARK  192  A    between atoms: _468  and  _470
REMARK  193  A    between atoms: _470  and  _471
REMARK  194  A    between atoms: _473  and  _475
REMARK  195  A    between atoms: _475  and  _476
REMARK  196  A    between atoms: _475  and  _478
REMARK  197  A    between atoms: _478  and  _479
REMARK  198  A    between atoms: _479  and  _480
REMARK  199  A    between atoms: _480  and  _481
REMARK  200  A    between atoms: _490  and  _492
REMARK  201  A    between atoms: _492  and  _493
REMARK  202  A    between atoms: _492  and  _495
REMARK  203  A    between atoms: _495  and  _496
REMARK                            x       y       z     vdW  Elec       q    Type
REMARK                         _______ _______ _______ _____ _____    ______ ____
ROOT
ATOM      1  O   HOH     1      25.524  35.910  21.471  0.00  0.00    +0.000 OA
ENDROOT
TORSDOF 0
REMARK  Name = ../refined-set-2016/2idw/2idw_pocket.pdb
REMARK  203 active torsions:
REMARK  status: ('A' for Active; 'I' for Inactive)
REMARK    1  A    between atoms: _1  and  _3
REMARK    2  A    between atoms: _3  and  _4
REMARK    3  A    between atoms: _3  and  _6
REMARK    4  A    between atoms: _6  and  _7
REMARK    5  A    between atoms: _7  and  _8
REMARK    6  A    between atoms: _8  and  _9
REMARK    7  A    between atoms: _18  and  _20
REMARK    8  A    between atoms: _20  and  _21
REMARK    9  A    between atoms: _20  and  _23
REMARK   10  A    between atoms: _23  and  _24
REMARK   11  A    between atoms: _27  and  _29
REMARK   12  A    between atoms: _29  and  _30
REMARK   13  A    between atoms: _29  and  _32
REMARK   14  A    between atoms: _32  and  _33
REMARK   15  A    between atoms: _36  and  _38
REMARK   16  A    between atoms: _38  and  _39
REMARK   17  A    between atoms: _38  and  _41
REMARK   18  A    between atoms: _41  and  _42
REMARK   19  A    between atoms: _45  and  _47
REMARK   20  A    between atoms: _47  and  _48
REMARK   21  A    between atoms: _47  and  _50
REMARK   22  A    between atoms: _50  and  _51
REMARK   23  A    between atoms: _54  and  _56
REMARK   24  A    between atoms: _56  and  _57
REMARK   25  A    between atoms: _59  and  _61
REMARK   26  A    between atoms: _61  and  _62
REMARK   27  A    between atoms: _65  and  _67
REMARK   28  A    between atoms: _67  and  _68
REMARK   29  A    between atoms: _67  and  _70
REMARK   30  A    between atoms: _70  and  _71
REMARK   31  A    between atoms: _74  and  _76
REMARK   32  A    between atoms: _76  and  _77
REMARK   33  A    between atoms: _76  and  _79
REMARK   34  A    between atoms: _79  and  _80
REMARK   35  A    between atoms: _83  and  _85
REMARK   36  A    between atoms: _85  and  _86
REMARK   37  A    between atoms: _85  and  _88
REMARK   38  A    between atoms: _88  and  _89
REMARK   39  A    between atoms: _92  and  _94
REMARK   40  A    between atoms: _94  and  _95
REMARK   41  A    between atoms: _94  and  _97
REMARK   42  A    between atoms: _100  and  _102
REMARK   43  A    between atoms: _102  and  _103
REMARK   44  A    between atoms: _102  and  _105
REMARK   45  A    between atoms: _105  and  _106
REMARK   46  A    between atoms: _106  and  _107
REMARK   47  A    between atoms: _107  and  _108
REMARK   48  A    between atoms: _108  and  _109
REMARK   49  A    between atoms: _113  and  _115
REMARK   50  A    between atoms: _115  and  _116
REMARK   51  A    between atoms: _115  and  _118
REMARK   52  A    between atoms: _118  and  _119
REMARK   53  A    between atoms: _119  and  _120
REMARK   54  A    between atoms: _122  and  _124
REMARK   55  A    between atoms: _124  and  _125
REMARK   56  A    between atoms: _124  and  _127
REMARK   57  A    between atoms: _127  and  _128
REMARK   58  A    between atoms: _131  and  _133
REMARK   59  A    between atoms: _133  and  _134
REMARK   60  A    between atoms: _136  and  _138
REMARK   61  A    between atoms: _138  and  _139
REMARK   62  A    between atoms: _141  and  _143
REMARK   63  A    between atoms: _143  and  _144
REMARK   64  A    between atoms: _143  and  _146
REMARK   65  A    between atoms: _146  and  _147
REMARK   66  A    between atoms: _150  and  _152
REMARK   67  A    between atoms: _152  and  _153
REMARK   68  A    between atoms: _155  and  _157
REMARK   69  A    between atoms: _157  and  _158
REMARK   70  A    between atoms: _160  and  _162
REMARK   71  A    between atoms: _162  and  _163
REMARK   72  A    between atoms: _162  and  _165
REMARK   73  A    between atoms: _165  and  _166
REMARK   74  A    between atoms: _172  and  _174
REMARK   75  A    between atoms: _174  and  _175
REMARK   76  A    between atoms: _174  and  _177
REMARK   77  A    between atoms: _177  and  _178
REMARK   78  A    between atoms: _181  and  _183
REMARK   79  A    between atoms: _183  and  _184
REMARK   80  A    between atoms: _183  and  _186
REMARK   81  A    between atoms: _189  and  _191
REMARK   82  A    between atoms: _191  and  _192
REMARK   83  A    between atoms: _191  and  _194
REMARK   84  A    between atoms: _194  and  _195
REMARK   85  A    between atoms: _198  and  _200
REMARK   86  A    between atoms: _200  and  _201
REMARK   87  A    between atoms: _200  and  _203
REMARK   88  A    between atoms: _203  and  _204
REMARK   89  A    between atoms: _208  and  _209
REMARK   90  A    between atoms: _214  and  _216
REMARK   91  A    between atoms: _216  and  _217
REMARK   92  A    between atoms: _220  and  _222
REMARK   93  A    between atoms: _222  and  _223
REMARK   94  A    between atoms: _222  and  _225
REMARK   95  A    between atoms: _225  and  _226
REMARK   96  A    between atoms: _231  and  _233
REMARK   97  A    between atoms: _233  and  _234
REMARK   98  A    between atoms: _233  and  _236
REMARK   99  A    between atoms: _236  and  _237
REMARK  100  A    between atoms: _240  and  _242
REMARK  101  A    between atoms: _242  and  _243
REMARK  102  A    between atoms: _242  and  _245
REMARK  103  A    between atoms: _245  and  _246
REMARK  104  A    between atoms: _249  and  _251
REMARK  105  A    between atoms: _251  and  _252
REMARK  106  A    between atoms: _254  and  _256
REMARK  107  A    between atoms: _256  and  _257
REMARK  108  A    between atoms: _256  and  _259
REMARK  109  A    between atoms: _259  and  _260
REMARK  110  A    between atoms: _260  and  _261
REMARK  111  A    between atoms: _261  and  _262
REMARK  112  A    between atoms: _271  and  _273
REMARK  113  A    between atoms: _273  and  _274
REMARK  114  A    between atoms: _273  and  _276
REMARK  115  A    between atoms: _276  and  _277
REMARK  116  A    between atoms: _277  and  _278
REMARK  117  A    between atoms: _278  and  _279
REMARK  118  A    between atoms: _288  and  _290
REMARK  119  A    between atoms: _290  and  _291
REMARK  120  A    between atoms: _290  and  _293
REMARK  121  A    between atoms: _293  and  _294
REMARK  122  A    between atoms: _297  and  _299
REMARK  123  A    between atoms: _299  and  _300
REMARK  124  A    between atoms: _299  and  _302
REMARK  125  A    between atoms: _302  and  _303
REMARK  126  A    between atoms: _306  and  _308
REMARK  127  A    between atoms: _308  and  _309
REMARK  128  A    between atoms: _308  and  _311
REMARK  129  A    between atoms: _311  and  _312
REMARK  130  A    between atoms: _315  and  _317
REMARK  131  A    between atoms: _317  and  _318
REMARK  132  A    between atoms: _317  and  _320
REMARK  133  A    between atoms: _320  and  _321
REMARK  134  A    between atoms: _324  and  _326
REMARK  135  A    between atoms: _326  and  _327
REMARK  136  A    between atoms: _329  and  _331
REMARK  137  A    between atoms: _331  and  _332
REMARK  138  A    between atoms: _335  and  _337
REMARK  139  A    between atoms: _337  and  _338
REMARK  140  A    between atoms: _337  and  _340
REMARK  141  A    between atoms: _340  and  _341
REMARK  142  A    between atoms: _344  and  _346
REMARK  143  A    between atoms: _346  and  _347
REMARK  144  A    between atoms: _346  and  _349
REMARK  145  A    between atoms: _349  and  _350
REMARK  146  A    between atoms: _353  and  _355
REMARK  147  A    between atoms: _355  and  _356
REMARK  148  A    between atoms: _355  and  _358
REMARK  149  A    between atoms: _358  and  _359
REMARK  150  A    between atoms: _362  and  _364
REMARK  151  A    between atoms: _364  and  _365
REMARK  152  A    between atoms: _364  and  _367
REMARK  153  A    between atoms: _370  and  _372
REMARK  154  A    between atoms: _372  and  _373
REMARK  155  A    between atoms: _372  and  _375
REMARK  156  A    between atoms: _375  and  _376
REMARK  157  A    between atoms: _379  and  _381
REMARK  158  A    between atoms: _381  and  _382
REMARK  159  A    between atoms: _384  and  _386
REMARK  160  A    between atoms: _386  and  _387
REMARK  161  A    between atoms: _389  and  _391
REMARK  162  A    between atoms: _391  and  _392
REMARK  163  A    between atoms: _391  and  _394
REMARK  164  A    between atoms: _394  and  _395
REMARK  165  A    between atoms: _398  and  _400
REMARK  166  A    between atoms: _400  and  _401
REMARK  167  A    between atoms: _403  and  _405
REMARK  168  A    between atoms: _405  and  _406
REMARK  169  A    between atoms: _408  and  _410
REMARK  170  A    between atoms: _410  and  _411
REMARK  171  A    between atoms: _410  and  _413
REMARK  172  A    between atoms: _413  and  _414
REMARK  173  A    between atoms: _417  and  _419
REMARK  174  A    between atoms: _419  and  _420
REMARK  175  A    between atoms: _419  and  _422
REMARK  176  A    between atoms: _422  and  _423
REMARK  177  A    between atoms: _427  and  _428
REMARK  178  A    between atoms: _433  and  _435
REMARK  179  A    between atoms: _435  and  _436
REMARK  180  A    between atoms: _439  and  _441
REMARK  181  A    between atoms: _441  and  _442
REMARK  182  A    between atoms: _441  and  _444
REMARK  183  A    between atoms: _444  and  _445
REMARK  184  A    between atoms: _450  and  _452
REMARK  185  A    between atoms: _452  and  _453
REMARK  186  A    between atoms: _452  and  _455
REMARK  187  A    between atoms: _455  and  _456
REMARK  188  A    between atoms: _459  and  _461
REMARK  189  A    between atoms: _461  and  _462
REMARK  190  A    between atoms: _461  and  _464
REMARK  191  A    between atoms: _464  and  _465
REMARK  192  A    between atoms: _468  and  _470
REMARK  193  A    between atoms: _470  and  _471
REMARK  194  A    between atoms: _473  and  _475
REMARK  195  A    between atoms: _475  and  _476
REMARK  196  A    between atoms: _475  and  _478
REMARK  197  A    between atoms: _478  and  _479
REMARK  198  A    between atoms: _479  and  _480
REMARK  199  A    between atoms: _480  and  _481
REMARK  200  A    between atoms: _490  and  _492
REMARK  201  A    between atoms: _492  and  _493
REMARK  202  A    between atoms: _492  and  _495
REMARK  203  A    between atoms: _495  and  _496
REMARK                            x       y       z     vdW  Elec       q    Type
REMARK                         _______ _______ _______ _____ _____    ______ ____
ROOT
ATOM      1  O   UNL     1      15.080  33.414   5.430  0.00  0.00    +0.000 OA
ATOM      2  O   UNL     1      14.008  32.671   5.795  0.00  0.00    +0.000 OA
ENDROOT
TORSDOF 0
REMARK  Name = ../refined-set-2016/2idw/2idw_pocket.pdb
REMARK  203 active torsions:
REMARK  status: ('A' for Active; 'I' for Inactive)
REMARK    1  A    between atoms: _1  and  _3
REMARK    2  A    between atoms: _3  and  _4
REMARK    3  A    between atoms: _3  and  _6
REMARK    4  A    between atoms: _6  and  _7
REMARK    5  A    between atoms: _7  and  _8
REMARK    6  A    between atoms: _8  and  _9
REMARK    7  A    between atoms: _18  and  _20
REMARK    8  A    between atoms: _20  and  _21
REMARK    9  A    between atoms: _20  and  _23
REMARK   10  A    between atoms: _23  and  _24
REMARK   11  A    between atoms: _27  and  _29
REMARK   12  A    between atoms: _29  and  _30
REMARK   13  A    between atoms: _29  and  _32
REMARK   14  A    between atoms: _32  and  _33
REMARK   15  A    between atoms: _36  and  _38
REMARK   16  A    between atoms: _38  and  _39
REMARK   17  A    between atoms: _38  and  _41
REMARK   18  A    between atoms: _41  and  _42
REMARK   19  A    between atoms: _45  and  _47
REMARK   20  A    between atoms: _47  and  _48
REMARK   21  A    between atoms: _47  and  _50
REMARK   22  A    between atoms: _50  and  _51
REMARK   23  A    between atoms: _54  and  _56
REMARK   24  A    between atoms: _56  and  _57
REMARK   25  A    between atoms: _59  and  _61
REMARK   26  A    between atoms: _61  and  _62
REMARK   27  A    between atoms: _65  and  _67
REMARK   28  A    between atoms: _67  and  _68
REMARK   29  A    between atoms: _67  and  _70
REMARK   30  A    between atoms: _70  and  _71
REMARK   31  A    between atoms: _74  and  _76
REMARK   32  A    between atoms: _76  and  _77
REMARK   33  A    between atoms: _76  and  _79
REMARK   34  A    between atoms: _79  and  _80
REMARK   35  A    between atoms: _83  and  _85
REMARK   36  A    between atoms: _85  and  _86
REMARK   37  A    between atoms: _85  and  _88
REMARK   38  A    between atoms: _88  and  _89
REMARK   39  A    between atoms: _92  and  _94
REMARK   40  A    between atoms: _94  and  _95
REMARK   41  A    between atoms: _94  and  _97
REMARK   42  A    between atoms: _100  and  _102
REMARK   43  A    between atoms: _102  and  _103
REMARK   44  A    between atoms: _102  and  _105
REMARK   45  A    between atoms: _105  and  _106
REMARK   46  A    between atoms: _106  and  _107
REMARK   47  A    between atoms: _107  and  _108
REMARK   48  A    between atoms: _108  and  _109
REMARK   49  A    between atoms: _113  and  _115
REMARK   50  A    between atoms: _115  and  _116
REMARK   51  A    between atoms: _115  and  _118
REMARK   52  A    between atoms: _118  and  _119
REMARK   53  A    between atoms: _119  and  _120
REMARK   54  A    between atoms: _122  and  _124
REMARK   55  A    between atoms: _124  and  _125
REMARK   56  A    between atoms: _124  and  _127
REMARK   57  A    between atoms: _127  and  _128
REMARK   58  A    between atoms: _131  and  _133
REMARK   59  A    between atoms: _133  and  _134
REMARK   60  A    between atoms: _136  and  _138
REMARK   61  A    between atoms: _138  and  _139
REMARK   62  A    between atoms: _141  and  _143
REMARK   63  A    between atoms: _143  and  _144
REMARK   64  A    between atoms: _143  and  _146
REMARK   65  A    between atoms: _146  and  _147
REMARK   66  A    between atoms: _150  and  _152
REMARK   67  A    between atoms: _152  and  _153
REMARK   68  A    between atoms: _155  and  _157
REMARK   69  A    between atoms: _157  and  _158
REMARK   70  A    between atoms: _160  and  _162
REMARK   71  A    between atoms: _162  and  _163
REMARK   72  A    between atoms: _162  and  _165
REMARK   73  A    between atoms: _165  and  _166
REMARK   74  A    between atoms: _172  and  _174
REMARK   75  A    between atoms: _174  and  _175
REMARK   76  A    between atoms: _174  and  _177
REMARK   77  A    between atoms: _177  and  _178
REMARK   78  A    between atoms: _181  and  _183
REMARK   79  A    between atoms: _183  and  _184
REMARK   80  A    between atoms: _183  and  _186
REMARK   81  A    between atoms: _189  and  _191
REMARK   82  A    between atoms: _191  and  _192
REMARK   83  A    between atoms: _191  and  _194
REMARK   84  A    between atoms: _194  and  _195
REMARK   85  A    between atoms: _198  and  _200
REMARK   86  A    between atoms: _200  and  _201
REMARK   87  A    between atoms: _200  and  _203
REMARK   88  A    between atoms: _203  and  _204
REMARK   89  A    between atoms: _208  and  _209
REMARK   90  A    between atoms: _214  and  _216
REMARK   91  A    between atoms: _216  and  _217
REMARK   92  A    between atoms: _220  and  _222
REMARK   93  A    between atoms: _222  and  _223
REMARK   94  A    between atoms: _222  and  _225
REMARK   95  A    between atoms: _225  and  _226
REMARK   96  A    between atoms: _231  and  _233
REMARK   97  A    between atoms: _233  and  _234
REMARK   98  A    between atoms: _233  and  _236
REMARK   99  A    between atoms: _236  and  _237
REMARK  100  A    between atoms: _240  and  _242
REMARK  101  A    between atoms: _242  and  _243
REMARK  102  A    between atoms: _242  and  _245
REMARK  103  A    between atoms: _245  and  _246
REMARK  104  A    between atoms: _249  and  _251
REMARK  105  A    between atoms: _251  and  _252
REMARK  106  A    between atoms: _254  and  _256
REMARK  107  A    between atoms: _256  and  _257
REMARK  108  A    between atoms: _256  and  _259
REMARK  109  A    between atoms: _259  and  _260
REMARK  110  A    between atoms: _260  and  _261
REMARK  111  A    between atoms: _261  and  _262
REMARK  112  A    between atoms: _271  and  _273
REMARK  113  A    between atoms: _273  and  _274
REMARK  114  A    between atoms: _273  and  _276
REMARK  115  A    between atoms: _276  and  _277
REMARK  116  A    between atoms: _277  and  _278
REMARK  117  A    between atoms: _278  and  _279
REMARK  118  A    between atoms: _288  and  _290
REMARK  119  A    between atoms: _290  and  _291
REMARK  120  A    between atoms: _290  and  _293
REMARK  121  A    between atoms: _293  and  _294
REMARK  122  A    between atoms: _297  and  _299
REMARK  123  A    between atoms: _299  and  _300
REMARK  124  A    between atoms: _299  and  _302
REMARK  125  A    between atoms: _302  and  _303
REMARK  126  A    between atoms: _306  and  _308
REMARK  127  A    between atoms: _308  and  _309
REMARK  128  A    between atoms: _308  and  _311
REMARK  129  A    between atoms: _311  and  _312
REMARK  130  A    between atoms: _315  and  _317
REMARK  131  A    between atoms: _317  and  _318
REMARK  132  A    between atoms: _317  and  _320
REMARK  133  A    between atoms: _320  and  _321
REMARK  134  A    between atoms: _324  and  _326
REMARK  135  A    between atoms: _326  and  _327
REMARK  136  A    between atoms: _329  and  _331
REMARK  137  A    between atoms: _331  and  _332
REMARK  138  A    between atoms: _335  and  _337
REMARK  139  A    between atoms: _337  and  _338
REMARK  140  A    between atoms: _337  and  _340
REMARK  141  A    between atoms: _340  and  _341
REMARK  142  A    between atoms: _344  and  _346
REMARK  143  A    between atoms: _346  and  _347
REMARK  144  A    between atoms: _346  and  _349
REMARK  145  A    between atoms: _349  and  _350
REMARK  146  A    between atoms: _353  and  _355
REMARK  147  A    between atoms: _355  and  _356
REMARK  148  A    between atoms: _355  and  _358
REMARK  149  A    between atoms: _358  and  _359
REMARK  150  A    between atoms: _362  and  _364
REMARK  151  A    between atoms: _364  and  _365
REMARK  152  A    between atoms: _364  and  _367
REMARK  153  A    between atoms: _370  and  _372
REMARK  154  A    between atoms: _372  and  _373
REMARK  155  A    between atoms: _372  and  _375
REMARK  156  A    between atoms: _375  and  _376
REMARK  157  A    between atoms: _379  and  _381
REMARK  158  A    between atoms: _381  and  _382
REMARK  159  A    between atoms: _384  and  _386
REMARK  160  A    between atoms: _386  and  _387
REMARK  161  A    between atoms: _389  and  _391
REMARK  162  A    between atoms: _391  and  _392
REMARK  163  A    between atoms: _391  and  _394
REMARK  164  A    between atoms: _394  and  _395
REMARK  165  A    between atoms: _398  and  _400
REMARK  166  A    between atoms: _400  and  _401
REMARK  167  A    between atoms: _403  and  _405
REMARK  168  A    between atoms: _405  and  _406
REMARK  169  A    between atoms: _408  and  _410
REMARK  170  A    between atoms: _410  and  _411
REMARK  171  A    between atoms: _410  and  _413
REMARK  172  A    between atoms: _413  and  _414
REMARK  173  A    between atoms: _417  and  _419
REMARK  174  A    between atoms: _419  and  _420
REMARK  175  A    between atoms: _419  and  _422
REMARK  176  A    between atoms: _422  and  _423
REMARK  177  A    between atoms: _427  and  _428
REMARK  178  A    between atoms: _433  and  _435
REMARK  179  A    between atoms: _435  and  _436
REMARK  180  A    between atoms: _439  and  _441
REMARK  181  A    between atoms: _441  and  _442
REMARK  182  A    between atoms: _441  and  _444
REMARK  183  A    between atoms: _444  and  _445
REMARK  184  A    between atoms: _450  and  _452
REMARK  185  A    between atoms: _452  and  _453
REMARK  186  A    between atoms: _452  and  _455
REMARK  187  A    between atoms: _455  and  _456
REMARK  188  A    between atoms: _459  and  _461
REMARK  189  A    between atoms: _461  and  _462
REMARK  190  A    between atoms: _461  and  _464
REMARK  191  A    between atoms: _464  and  _465
REMARK  192  A    between atoms: _468  and  _470
REMARK  193  A    between atoms: _470  and  _471
REMARK  194  A    between atoms: _473  and  _475
REMARK  195  A    between atoms: _475  and  _476
REMARK  196  A    between atoms: _475  and  _478
REMARK  197  A    between atoms: _478  and  _479
REMARK  198  A    between atoms: _479  and  _480
REMARK  199  A    between atoms: _480  and  _481
REMARK  200  A    between atoms: _490  and  _492
REMARK  201  A    between atoms: _492  and  _493
REMARK  202  A    between atoms: _492  and  _495
REMARK  203  A    between atoms: _495  and  _496
REMARK                            x       y       z     vdW  Elec       q    Type
REMARK                         _______ _______ _______ _____ _____    ______ ____
ROOT
ATOM      1  O   HOH     1      22.287  24.973   7.581  0.00  0.00    +0.000 OA
ENDROOT
TORSDOF 0
REMARK  Name = ../refined-set-2016/2idw/2idw_pocket.pdb
REMARK  203 active torsions:
REMARK  status: ('A' for Active; 'I' for Inactive)
REMARK    1  A    between atoms: _1  and  _3
REMARK    2  A    between atoms: _3  and  _4
REMARK    3  A    between atoms: _3  and  _6
REMARK    4  A    between atoms: _6  and  _7
REMARK    5  A    between atoms: _7  and  _8
REMARK    6  A    between atoms: _8  and  _9
REMARK    7  A    between atoms: _18  and  _20
REMARK    8  A    between atoms: _20  and  _21
REMARK    9  A    between atoms: _20  and  _23
REMARK   10  A    between atoms: _23  and  _24
REMARK   11  A    between atoms: _27  and  _29
REMARK   12  A    between atoms: _29  and  _30
REMARK   13  A    between atoms: _29  and  _32
REMARK   14  A    between atoms: _32  and  _33
REMARK   15  A    between atoms: _36  and  _38
REMARK   16  A    between atoms: _38  and  _39
REMARK   17  A    between atoms: _38  and  _41
REMARK   18  A    between atoms: _41  and  _42
REMARK   19  A    between atoms: _45  and  _47
REMARK   20  A    between atoms: _47  and  _48
REMARK   21  A    between atoms: _47  and  _50
REMARK   22  A    between atoms: _50  and  _51
REMARK   23  A    between atoms: _54  and  _56
REMARK   24  A    between atoms: _56  and  _57
REMARK   25  A    between atoms: _59  and  _61
REMARK   26  A    between atoms: _61  and  _62
REMARK   27  A    between atoms: _65  and  _67
REMARK   28  A    between atoms: _67  and  _68
REMARK   29  A    between atoms: _67  and  _70
REMARK   30  A    between atoms: _70  and  _71
REMARK   31  A    between atoms: _74  and  _76
REMARK   32  A    between atoms: _76  and  _77
REMARK   33  A    between atoms: _76  and  _79
REMARK   34  A    between atoms: _79  and  _80
REMARK   35  A    between atoms: _83  and  _85
REMARK   36  A    between atoms: _85  and  _86
REMARK   37  A    between atoms: _85  and  _88
REMARK   38  A    between atoms: _88  and  _89
REMARK   39  A    between atoms: _92  and  _94
REMARK   40  A    between atoms: _94  and  _95
REMARK   41  A    between atoms: _94  and  _97
REMARK   42  A    between atoms: _100  and  _102
REMARK   43  A    between atoms: _102  and  _103
REMARK   44  A    between atoms: _102  and  _105
REMARK   45  A    between atoms: _105  and  _106
REMARK   46  A    between atoms: _106  and  _107
REMARK   47  A    between atoms: _107  and  _108
REMARK   48  A    between atoms: _108  and  _109
REMARK   49  A    between atoms: _113  and  _115
REMARK   50  A    between atoms: _115  and  _116
REMARK   51  A    between atoms: _115  and  _118
REMARK   52  A    between atoms: _118  and  _119
REMARK   53  A    between atoms: _119  and  _120
REMARK   54  A    between atoms: _122  and  _124
REMARK   55  A    between atoms: _124  and  _125
REMARK   56  A    between atoms: _124  and  _127
REMARK   57  A    between atoms: _127  and  _128
REMARK   58  A    between atoms: _131  and  _133
REMARK   59  A    between atoms: _133  and  _134
REMARK   60  A    between atoms: _136  and  _138
REMARK   61  A    between atoms: _138  and  _139
REMARK   62  A    between atoms: _141  and  _143
REMARK   63  A    between atoms: _143  and  _144
REMARK   64  A    between atoms: _143  and  _146
REMARK   65  A    between atoms: _146  and  _147
REMARK   66  A    between atoms: _150  and  _152
REMARK   67  A    between atoms: _152  and  _153
REMARK   68  A    between atoms: _155  and  _157
REMARK   69  A    between atoms: _157  and  _158
REMARK   70  A    between atoms: _160  and  _162
REMARK   71  A    between atoms: _162  and  _163
REMARK   72  A    between atoms: _162  and  _165
REMARK   73  A    between atoms: _165  and  _166
REMARK   74  A    between atoms: _172  and  _174
REMARK   75  A    between atoms: _174  and  _175
REMARK   76  A    between atoms: _174  and  _177
REMARK   77  A    between atoms: _177  and  _178
REMARK   78  A    between atoms: _181  and  _183
REMARK   79  A    between atoms: _183  and  _184
REMARK   80  A    between atoms: _183  and  _186
REMARK   81  A    between atoms: _189  and  _191
REMARK   82  A    between atoms: _191  and  _192
REMARK   83  A    between atoms: _191  and  _194
REMARK   84  A    between atoms: _194  and  _195
REMARK   85  A    between atoms: _198  and  _200
REMARK   86  A    between atoms: _200  and  _201
REMARK   87  A    between atoms: _200  and  _203
REMARK   88  A    between atoms: _203  and  _204
REMARK   89  A    between atoms: _208  and  _209
REMARK   90  A    between atoms: _214  and  _216
REMARK   91  A    between atoms: _216  and  _217
REMARK   92  A    between atoms: _220  and  _222
REMARK   93  A    between atoms: _222  and  _223
REMARK   94  A    between atoms: _222  and  _225
REMARK   95  A    between atoms: _225  and  _226
REMARK   96  A    between atoms: _231  and  _233
REMARK   97  A    between atoms: _233  and  _234
REMARK   98  A    between atoms: _233  and  _236
REMARK   99  A    between atoms: _236  and  _237
REMARK  100  A    between atoms: _240  and  _242
REMARK  101  A    between atoms: _242  and  _243
REMARK  102  A    between atoms: _242  and  _245
REMARK  103  A    between atoms: _245  and  _246
REMARK  104  A    between atoms: _249  and  _251
REMARK  105  A    between atoms: _251  and  _252
REMARK  106  A    between atoms: _254  and  _256
REMARK  107  A    between atoms: _256  and  _257
REMARK  108  A    between atoms: _256  and  _259
REMARK  109  A    between atoms: _259  and  _260
REMARK  110  A    between atoms: _260  and  _261
REMARK  111  A    between atoms: _261  and  _262
REMARK  112  A    between atoms: _271  and  _273
REMARK  113  A    between atoms: _273  and  _274
REMARK  114  A    between atoms: _273  and  _276
REMARK  115  A    between atoms: _276  and  _277
REMARK  116  A    between atoms: _277  and  _278
REMARK  117  A    between atoms: _278  and  _279
REMARK  118  A    between atoms: _288  and  _290
REMARK  119  A    between atoms: _290  and  _291
REMARK  120  A    between atoms: _290  and  _293
REMARK  121  A    between atoms: _293  and  _294
REMARK  122  A    between atoms: _297  and  _299
REMARK  123  A    between atoms: _299  and  _300
REMARK  124  A    between atoms: _299  and  _302
REMARK  125  A    between atoms: _302  and  _303
REMARK  126  A    between atoms: _306  and  _308
REMARK  127  A    between atoms: _308  and  _309
REMARK  128  A    between atoms: _308  and  _311
REMARK  129  A    between atoms: _311  and  _312
REMARK  130  A    between atoms: _315  and  _317
REMARK  131  A    between atoms: _317  and  _318
REMARK  132  A    between atoms: _317  and  _320
REMARK  133  A    between atoms: _320  and  _321
REMARK  134  A    between atoms: _324  and  _326
REMARK  135  A    between atoms: _326  and  _327
REMARK  136  A    between atoms: _329  and  _331
REMARK  137  A    between atoms: _331  and  _332
REMARK  138  A    between atoms: _335  and  _337
REMARK  139  A    between atoms: _337  and  _338
REMARK  140  A    between atoms: _337  and  _340
REMARK  141  A    between atoms: _340  and  _341
REMARK  142  A    between atoms: _344  and  _346
REMARK  143  A    between atoms: _346  and  _347
REMARK  144  A    between atoms: _346  and  _349
REMARK  145  A    between atoms: _349  and  _350
REMARK  146  A    between atoms: _353  and  _355
REMARK  147  A    between atoms: _355  and  _356
REMARK  148  A    between atoms: _355  and  _358
REMARK  149  A    between atoms: _358  and  _359
REMARK  150  A    between atoms: _362  and  _364
REMARK  151  A    between atoms: _364  and  _365
REMARK  152  A    between atoms: _364  and  _367
REMARK  153  A    between atoms: _370  and  _372
REMARK  154  A    between atoms: _372  and  _373
REMARK  155  A    between atoms: _372  and  _375
REMARK  156  A    between atoms: _375  and  _376
REMARK  157  A    between atoms: _379  and  _381
REMARK  158  A    between atoms: _381  and  _382
REMARK  159  A    between atoms: _384  and  _386
REMARK  160  A    between atoms: _386  and  _387
REMARK  161  A    between atoms: _389  and  _391
REMARK  162  A    between atoms: _391  and  _392
REMARK  163  A    between atoms: _391  and  _394
REMARK  164  A    between atoms: _394  and  _395
REMARK  165  A    between atoms: _398  and  _400
REMARK  166  A    between atoms: _400  and  _401
REMARK  167  A    between atoms: _403  and  _405
REMARK  168  A    between atoms: _405  and  _406
REMARK  169  A    between atoms: _408  and  _410
REMARK  170  A    between atoms: _410  and  _411
REMARK  171  A    between atoms: _410  and  _413
REMARK  172  A    between atoms: _413  and  _414
REMARK  173  A    between atoms: _417  and  _419
REMARK  174  A    between atoms: _419  and  _420
REMARK  175  A    between atoms: _419  and  _422
REMARK  176  A    between atoms: _422  and  _423
REMARK  177  A    between atoms: _427  and  _428
REMARK  178  A    between atoms: _433  and  _435
REMARK  179  A    between atoms: _435  and  _436
REMARK  180  A    between atoms: _439  and  _441
REMARK  181  A    between atoms: _441  and  _442
REMARK  182  A    between atoms: _441  and  _444
REMARK  183  A    between atoms: _444  and  _445
REMARK  184  A    between atoms: _450  and  _452
REMARK  185  A    between atoms: _452  and  _453
REMARK  186  A    between atoms: _452  and  _455
REMARK  187  A    between atoms: _455  and  _456
REMARK  188  A    between atoms: _459  and  _461
REMARK  189  A    between atoms: _461  and  _462
REMARK  190  A    between atoms: _461  and  _464
REMARK  191  A    between atoms: _464  and  _465
REMARK  192  A    between atoms: _468  and  _470
REMARK  193  A    between atoms: _470  and  _471
REMARK  194  A    between atoms: _473  and  _475
REMARK  195  A    between atoms: _475  and  _476
REMARK  196  A    between atoms: _475  and  _478
REMARK  197  A    between atoms: _478  and  _479
REMARK  198  A    between atoms: _479  and  _480
REMARK  199  A    between atoms: _480  and  _481
REMARK  200  A    between atoms: _490  and  _492
REMARK  201  A    between atoms: _492  and  _493
REMARK  202  A    between atoms: _492  and  _495
REMARK  203  A    between atoms: _495  and  _496
REMARK                            x       y       z     vdW  Elec       q    Type
REMARK                         _______ _______ _______ _____ _____    ______ ____
ROOT
ATOM      1  O   HOH     1      16.267  38.852  18.313  0.00  0.00    +0.000 OA
ENDROOT
TORSDOF 0
REMARK  Name = ../refined-set-2016/2idw/2idw_pocket.pdb
REMARK  203 active torsions:
REMARK  status: ('A' for Active; 'I' for Inactive)
REMARK    1  A    between atoms: _1  and  _3
REMARK    2  A    between atoms: _3  and  _4
REMARK    3  A    between atoms: _3  and  _6
REMARK    4  A    between atoms: _6  and  _7
REMARK    5  A    between atoms: _7  and  _8
REMARK    6  A    between atoms: _8  and  _9
REMARK    7  A    between atoms: _18  and  _20
REMARK    8  A    between atoms: _20  and  _21
REMARK    9  A    between atoms: _20  and  _23
REMARK   10  A    between atoms: _23  and  _24
REMARK   11  A    between atoms: _27  and  _29
REMARK   12  A    between atoms: _29  and  _30
REMARK   13  A    between atoms: _29  and  _32
REMARK   14  A    between atoms: _32  and  _33
REMARK   15  A    between atoms: _36  and  _38
REMARK   16  A    between atoms: _38  and  _39
REMARK   17  A    between atoms: _38  and  _41
REMARK   18  A    between atoms: _41  and  _42
REMARK   19  A    between atoms: _45  and  _47
REMARK   20  A    between atoms: _47  and  _48
REMARK   21  A    between atoms: _47  and  _50
REMARK   22  A    between atoms: _50  and  _51
REMARK   23  A    between atoms: _54  and  _56
REMARK   24  A    between atoms: _56  and  _57
REMARK   25  A    between atoms: _59  and  _61
REMARK   26  A    between atoms: _61  and  _62
REMARK   27  A    between atoms: _65  and  _67
REMARK   28  A    between atoms: _67  and  _68
REMARK   29  A    between atoms: _67  and  _70
REMARK   30  A    between atoms: _70  and  _71
REMARK   31  A    between atoms: _74  and  _76
REMARK   32  A    between atoms: _76  and  _77
REMARK   33  A    between atoms: _76  and  _79
REMARK   34  A    between atoms: _79  and  _80
REMARK   35  A    between atoms: _83  and  _85
REMARK   36  A    between atoms: _85  and  _86
REMARK   37  A    between atoms: _85  and  _88
REMARK   38  A    between atoms: _88  and  _89
REMARK   39  A    between atoms: _92  and  _94
REMARK   40  A    between atoms: _94  and  _95
REMARK   41  A    between atoms: _94  and  _97
REMARK   42  A    between atoms: _100  and  _102
REMARK   43  A    between atoms: _102  and  _103
REMARK   44  A    between atoms: _102  and  _105
REMARK   45  A    between atoms: _105  and  _106
REMARK   46  A    between atoms: _106  and  _107
REMARK   47  A    between atoms: _107  and  _108
REMARK   48  A    between atoms: _108  and  _109
REMARK   49  A    between atoms: _113  and  _115
REMARK   50  A    between atoms: _115  and  _116
REMARK   51  A    between atoms: _115  and  _118
REMARK   52  A    between atoms: _118  and  _119
REMARK   53  A    between atoms: _119  and  _120
REMARK   54  A    between atoms: _122  and  _124
REMARK   55  A    between atoms: _124  and  _125
REMARK   56  A    between atoms: _124  and  _127
REMARK   57  A    between atoms: _127  and  _128
REMARK   58  A    between atoms: _131  and  _133
REMARK   59  A    between atoms: _133  and  _134
REMARK   60  A    between atoms: _136  and  _138
REMARK   61  A    between atoms: _138  and  _139
REMARK   62  A    between atoms: _141  and  _143
REMARK   63  A    between atoms: _143  and  _144
REMARK   64  A    between atoms: _143  and  _146
REMARK   65  A    between atoms: _146  and  _147
REMARK   66  A    between atoms: _150  and  _152
REMARK   67  A    between atoms: _152  and  _153
REMARK   68  A    between atoms: _155  and  _157
REMARK   69  A    between atoms: _157  and  _158
REMARK   70  A    between atoms: _160  and  _162
REMARK   71  A    between atoms: _162  and  _163
REMARK   72  A    between atoms: _162  and  _165
REMARK   73  A    between atoms: _165  and  _166
REMARK   74  A    between atoms: _172  and  _174
REMARK   75  A    between atoms: _174  and  _175
REMARK   76  A    between atoms: _174  and  _177
REMARK   77  A    between atoms: _177  and  _178
REMARK   78  A    between atoms: _181  and  _183
REMARK   79  A    between atoms: _183  and  _184
REMARK   80  A    between atoms: _183  and  _186
REMARK   81  A    between atoms: _189  and  _191
REMARK   82  A    between atoms: _191  and  _192
REMARK   83  A    between atoms: _191  and  _194
REMARK   84  A    between atoms: _194  and  _195
REMARK   85  A    between atoms: _198  and  _200
REMARK   86  A    between atoms: _200  and  _201
REMARK   87  A    between atoms: _200  and  _203
REMARK   88  A    between atoms: _203  and  _204
REMARK   89  A    between atoms: _208  and  _209
REMARK   90  A    between atoms: _214  and  _216
REMARK   91  A    between atoms: _216  and  _217
REMARK   92  A    between atoms: _220  and  _222
REMARK   93  A    between atoms: _222  and  _223
REMARK   94  A    between atoms: _222  and  _225
REMARK   95  A    between atoms: _225  and  _226
REMARK   96  A    between atoms: _231  and  _233
REMARK   97  A    between atoms: _233  and  _234
REMARK   98  A    between atoms: _233  and  _236
REMARK   99  A    between atoms: _236  and  _237
REMARK  100  A    between atoms: _240  and  _242
REMARK  101  A    between atoms: _242  and  _243
REMARK  102  A    between atoms: _242  and  _245
REMARK  103  A    between atoms: _245  and  _246
REMARK  104  A    between atoms: _249  and  _251
REMARK  105  A    between atoms: _251  and  _252
REMARK  106  A    between atoms: _254  and  _256
REMARK  107  A    between atoms: _256  and  _257
REMARK  108  A    between atoms: _256  and  _259
REMARK  109  A    between atoms: _259  and  _260
REMARK  110  A    between atoms: _260  and  _261
REMARK  111  A    between atoms: _261  and  _262
REMARK  112  A    between atoms: _271  and  _273
REMARK  113  A    between atoms: _273  and  _274
REMARK  114  A    between atoms: _273  and  _276
REMARK  115  A    between atoms: _276  and  _277
REMARK  116  A    between atoms: _277  and  _278
REMARK  117  A    between atoms: _278  and  _279
REMARK  118  A    between atoms: _288  and  _290
REMARK  119  A    between atoms: _290  and  _291
REMARK  120  A    between atoms: _290  and  _293
REMARK  121  A    between atoms: _293  and  _294
REMARK  122  A    between atoms: _297  and  _299
REMARK  123  A    between atoms: _299  and  _300
REMARK  124  A    between atoms: _299  and  _302
REMARK  125  A    between atoms: _302  and  _303
REMARK  126  A    between atoms: _306  and  _308
REMARK  127  A    between atoms: _308  and  _309
REMARK  128  A    between atoms: _308  and  _311
REMARK  129  A    between atoms: _311  and  _312
REMARK  130  A    between atoms: _315  and  _317
REMARK  131  A    between atoms: _317  and  _318
REMARK  132  A    between atoms: _317  and  _320
REMARK  133  A    between atoms: _320  and  _321
REMARK  134  A    between atoms: _324  and  _326
REMARK  135  A    between atoms: _326  and  _327
REMARK  136  A    between atoms: _329  and  _331
REMARK  137  A    between atoms: _331  and  _332
REMARK  138  A    between atoms: _335  and  _337
REMARK  139  A    between atoms: _337  and  _338
REMARK  140  A    between atoms: _337  and  _340
REMARK  141  A    between atoms: _340  and  _341
REMARK  142  A    between atoms: _344  and  _346
REMARK  143  A    between atoms: _346  and  _347
REMARK  144  A    between atoms: _346  and  _349
REMARK  145  A    between atoms: _349  and  _350
REMARK  146  A    between atoms: _353  and  _355
REMARK  147  A    between atoms: _355  and  _356
REMARK  148  A    between atoms: _355  and  _358
REMARK  149  A    between atoms: _358  and  _359
REMARK  150  A    between atoms: _362  and  _364
REMARK  151  A    between atoms: _364  and  _365
REMARK  152  A    between atoms: _364  and  _367
REMARK  153  A    between atoms: _370  and  _372
REMARK  154  A    between atoms: _372  and  _373
REMARK  155  A    between atoms: _372  and  _375
REMARK  156  A    between atoms: _375  and  _376
REMARK  157  A    between atoms: _379  and  _381
REMARK  158  A    between atoms: _381  and  _382
REMARK  159  A    between atoms: _384  and  _386
REMARK  160  A    between atoms: _386  and  _387
REMARK  161  A    between atoms: _389  and  _391
REMARK  162  A    between atoms: _391  and  _392
REMARK  163  A    between atoms: _391  and  _394
REMARK  164  A    between atoms: _394  and  _395
REMARK  165  A    between atoms: _398  and  _400
REMARK  166  A    between atoms: _400  and  _401
REMARK  167  A    between atoms: _403  and  _405
REMARK  168  A    between atoms: _405  and  _406
REMARK  169  A    between atoms: _408  and  _410
REMARK  170  A    between atoms: _410  and  _411
REMARK  171  A    between atoms: _410  and  _413
REMARK  172  A    between atoms: _413  and  _414
REMARK  173  A    between atoms: _417  and  _419
REMARK  174  A    between atoms: _419  and  _420
REMARK  175  A    between atoms: _419  and  _422
REMARK  176  A    between atoms: _422  and  _423
REMARK  177  A    between atoms: _427  and  _428
REMARK  178  A    between atoms: _433  and  _435
REMARK  179  A    between atoms: _435  and  _436
REMARK  180  A    between atoms: _439  and  _441
REMARK  181  A    between atoms: _441  and  _442
REMARK  182  A    between atoms: _441  and  _444
REMARK  183  A    between atoms: _444  and  _445
REMARK  184  A    between atoms: _450  and  _452
REMARK  185  A    between atoms: _452  and  _453
REMARK  186  A    between atoms: _452  and  _455
REMARK  187  A    between atoms: _455  and  _456
REMARK  188  A    between atoms: _459  and  _461
REMARK  189  A    between atoms: _461  and  _462
REMARK  190  A    between atoms: _461  and  _464
REMARK  191  A    between atoms: _464  and  _465
REMARK  192  A    between atoms: _468  and  _470
REMARK  193  A    between atoms: _470  and  _471
REMARK  194  A    between atoms: _473  and  _475
REMARK  195  A    between atoms: _475  and  _476
REMARK  196  A    between atoms: _475  and  _478
REMARK  197  A    between atoms: _478  and  _479
REMARK  198  A    between atoms: _479  and  _480
REMARK  199  A    between atoms: _480  and  _481
REMARK  200  A    between atoms: _490  and  _492
REMARK  201  A    between atoms: _492  and  _493
REMARK  202  A    between atoms: _492  and  _495
REMARK  203  A    between atoms: _495  and  _496
REMARK                            x       y       z     vdW  Elec       q    Type
REMARK                         _______ _______ _______ _____ _____    ______ ____
ROOT
ATOM      1  O   HOH     1      19.298  22.707  13.720  0.00  0.00    +0.000 OA
ENDROOT
TORSDOF 0
REMARK  Name = ../refined-set-2016/2idw/2idw_pocket.pdb
REMARK  203 active torsions:
REMARK  status: ('A' for Active; 'I' for Inactive)
REMARK    1  A    between atoms: _1  and  _3
REMARK    2  A    between atoms: _3  and  _4
REMARK    3  A    between atoms: _3  and  _6
REMARK    4  A    between atoms: _6  and  _7
REMARK    5  A    between atoms: _7  and  _8
REMARK    6  A    between atoms: _8  and  _9
REMARK    7  A    between atoms: _18  and  _20
REMARK    8  A    between atoms: _20  and  _21
REMARK    9  A    between atoms: _20  and  _23
REMARK   10  A    between atoms: _23  and  _24
REMARK   11  A    between atoms: _27  and  _29
REMARK   12  A    between atoms: _29  and  _30
REMARK   13  A    between atoms: _29  and  _32
REMARK   14  A    between atoms: _32  and  _33
REMARK   15  A    between atoms: _36  and  _38
REMARK   16  A    between atoms: _38  and  _39
REMARK   17  A    between atoms: _38  and  _41
REMARK   18  A    between atoms: _41  and  _42
REMARK   19  A    between atoms: _45  and  _47
REMARK   20  A    between atoms: _47  and  _48
REMARK   21  A    between atoms: _47  and  _50
REMARK   22  A    between atoms: _50  and  _51
REMARK   23  A    between atoms: _54  and  _56
REMARK   24  A    between atoms: _56  and  _57
REMARK   25  A    between atoms: _59  and  _61
REMARK   26  A    between atoms: _61  and  _62
REMARK   27  A    between atoms: _65  and  _67
REMARK   28  A    between atoms: _67  and  _68
REMARK   29  A    between atoms: _67  and  _70
REMARK   30  A    between atoms: _70  and  _71
REMARK   31  A    between atoms: _74  and  _76
REMARK   32  A    between atoms: _76  and  _77
REMARK   33  A    between atoms: _76  and  _79
REMARK   34  A    between atoms: _79  and  _80
REMARK   35  A    between atoms: _83  and  _85
REMARK   36  A    between atoms: _85  and  _86
REMARK   37  A    between atoms: _85  and  _88
REMARK   38  A    between atoms: _88  and  _89
REMARK   39  A    between atoms: _92  and  _94
REMARK   40  A    between atoms: _94  and  _95
REMARK   41  A    between atoms: _94  and  _97
REMARK   42  A    between atoms: _100  and  _102
REMARK   43  A    between atoms: _102  and  _103
REMARK   44  A    between atoms: _102  and  _105
REMARK   45  A    between atoms: _105  and  _106
REMARK   46  A    between atoms: _106  and  _107
REMARK   47  A    between atoms: _107  and  _108
REMARK   48  A    between atoms: _108  and  _109
REMARK   49  A    between atoms: _113  and  _115
REMARK   50  A    between atoms: _115  and  _116
REMARK   51  A    between atoms: _115  and  _118
REMARK   52  A    between atoms: _118  and  _119
REMARK   53  A    between atoms: _119  and  _120
REMARK   54  A    between atoms: _122  and  _124
REMARK   55  A    between atoms: _124  and  _125
REMARK   56  A    between atoms: _124  and  _127
REMARK   57  A    between atoms: _127  and  _128
REMARK   58  A    between atoms: _131  and  _133
REMARK   59  A    between atoms: _133  and  _134
REMARK   60  A    between atoms: _136  and  _138
REMARK   61  A    between atoms: _138  and  _139
REMARK   62  A    between atoms: _141  and  _143
REMARK   63  A    between atoms: _143  and  _144
REMARK   64  A    between atoms: _143  and  _146
REMARK   65  A    between atoms: _146  and  _147
REMARK   66  A    between atoms: _150  and  _152
REMARK   67  A    between atoms: _152  and  _153
REMARK   68  A    between atoms: _155  and  _157
REMARK   69  A    between atoms: _157  and  _158
REMARK   70  A    between atoms: _160  and  _162
REMARK   71  A    between atoms: _162  and  _163
REMARK   72  A    between atoms: _162  and  _165
REMARK   73  A    between atoms: _165  and  _166
REMARK   74  A    between atoms: _172  and  _174
REMARK   75  A    between atoms: _174  and  _175
REMARK   76  A    between atoms: _174  and  _177
REMARK   77  A    between atoms: _177  and  _178
REMARK   78  A    between atoms: _181  and  _183
REMARK   79  A    between atoms: _183  and  _184
REMARK   80  A    between atoms: _183  and  _186
REMARK   81  A    between atoms: _189  and  _191
REMARK   82  A    between atoms: _191  and  _192
REMARK   83  A    between atoms: _191  and  _194
REMARK   84  A    between atoms: _194  and  _195
REMARK   85  A    between atoms: _198  and  _200
REMARK   86  A    between atoms: _200  and  _201
REMARK   87  A    between atoms: _200  and  _203
REMARK   88  A    between atoms: _203  and  _204
REMARK   89  A    between atoms: _208  and  _209
REMARK   90  A    between atoms: _214  and  _216
REMARK   91  A    between atoms: _216  and  _217
REMARK   92  A    between atoms: _220  and  _222
REMARK   93  A    between atoms: _222  and  _223
REMARK   94  A    between atoms: _222  and  _225
REMARK   95  A    between atoms: _225  and  _226
REMARK   96  A    between atoms: _231  and  _233
REMARK   97  A    between atoms: _233  and  _234
REMARK   98  A    between atoms: _233  and  _236
REMARK   99  A    between atoms: _236  and  _237
REMARK  100  A    between atoms: _240  and  _242
REMARK  101  A    between atoms: _242  and  _243
REMARK  102  A    between atoms: _242  and  _245
REMARK  103  A    between atoms: _245  and  _246
REMARK  104  A    between atoms: _249  and  _251
REMARK  105  A    between atoms: _251  and  _252
REMARK  106  A    between atoms: _254  and  _256
REMARK  107  A    between atoms: _256  and  _257
REMARK  108  A    between atoms: _256  and  _259
REMARK  109  A    between atoms: _259  and  _260
REMARK  110  A    between atoms: _260  and  _261
REMARK  111  A    between atoms: _261  and  _262
REMARK  112  A    between atoms: _271  and  _273
REMARK  113  A    between atoms: _273  and  _274
REMARK  114  A    between atoms: _273  and  _276
REMARK  115  A    between atoms: _276  and  _277
REMARK  116  A    between atoms: _277  and  _278
REMARK  117  A    between atoms: _278  and  _279
REMARK  118  A    between atoms: _288  and  _290
REMARK  119  A    between atoms: _290  and  _291
REMARK  120  A    between atoms: _290  and  _293
REMARK  121  A    between atoms: _293  and  _294
REMARK  122  A    between atoms: _297  and  _299
REMARK  123  A    between atoms: _299  and  _300
REMARK  124  A    between atoms: _299  and  _302
REMARK  125  A    between atoms: _302  and  _303
REMARK  126  A    between atoms: _306  and  _308
REMARK  127  A    between atoms: _308  and  _309
REMARK  128  A    between atoms: _308  and  _311
REMARK  129  A    between atoms: _311  and  _312
REMARK  130  A    between atoms: _315  and  _317
REMARK  131  A    between atoms: _317  and  _318
REMARK  132  A    between atoms: _317  and  _320
REMARK  133  A    between atoms: _320  and  _321
REMARK  134  A    between atoms: _324  and  _326
REMARK  135  A    between atoms: _326  and  _327
REMARK  136  A    between atoms: _329  and  _331
REMARK  137  A    between atoms: _331  and  _332
REMARK  138  A    between atoms: _335  and  _337
REMARK  139  A    between atoms: _337  and  _338
REMARK  140  A    between atoms: _337  and  _340
REMARK  141  A    between atoms: _340  and  _341
REMARK  142  A    between atoms: _344  and  _346
REMARK  143  A    between atoms: _346  and  _347
REMARK  144  A    between atoms: _346  and  _349
REMARK  145  A    between atoms: _349  and  _350
REMARK  146  A    between atoms: _353  and  _355
REMARK  147  A    between atoms: _355  and  _356
REMARK  148  A    between atoms: _355  and  _358
REMARK  149  A    between atoms: _358  and  _359
REMARK  150  A    between atoms: _362  and  _364
REMARK  151  A    between atoms: _364  and  _365
REMARK  152  A    between atoms: _364  and  _367
REMARK  153  A    between atoms: _370  and  _372
REMARK  154  A    between atoms: _372  and  _373
REMARK  155  A    between atoms: _372  and  _375
REMARK  156  A    between atoms: _375  and  _376
REMARK  157  A    between atoms: _379  and  _381
REMARK  158  A    between atoms: _381  and  _382
REMARK  159  A    between atoms: _384  and  _386
REMARK  160  A    between atoms: _386  and  _387
REMARK  161  A    between atoms: _389  and  _391
REMARK  162  A    between atoms: _391  and  _392
REMARK  163  A    between atoms: _391  and  _394
REMARK  164  A    between atoms: _394  and  _395
REMARK  165  A    between atoms: _398  and  _400
REMARK  166  A    between atoms: _400  and  _401
REMARK  167  A    between atoms: _403  and  _405
REMARK  168  A    between atoms: _405  and  _406
REMARK  169  A    between atoms: _408  and  _410
REMARK  170  A    between atoms: _410  and  _411
REMARK  171  A    between atoms: _410  and  _413
REMARK  172  A    between atoms: _413  and  _414
REMARK  173  A    between atoms: _417  and  _419
REMARK  174  A    between atoms: _419  and  _420
REMARK  175  A    between atoms: _419  and  _422
REMARK  176  A    between atoms: _422  and  _423
REMARK  177  A    between atoms: _427  and  _428
REMARK  178  A    between atoms: _433  and  _435
REMARK  179  A    between atoms: _435  and  _436
REMARK  180  A    between atoms: _439  and  _441
REMARK  181  A    between atoms: _441  and  _442
REMARK  182  A    between atoms: _441  and  _444
REMARK  183  A    between atoms: _444  and  _445
REMARK  184  A    between atoms: _450  and  _452
REMARK  185  A    between atoms: _452  and  _453
REMARK  186  A    between atoms: _452  and  _455
REMARK  187  A    between atoms: _455  and  _456
REMARK  188  A    between atoms: _459  and  _461
REMARK  189  A    between atoms: _461  and  _462
REMARK  190  A    between atoms: _461  and  _464
REMARK  191  A    between atoms: _464  and  _465
REMARK  192  A    between atoms: _468  and  _470
REMARK  193  A    between atoms: _470  and  _471
REMARK  194  A    between atoms: _473  and  _475
REMARK  195  A    between atoms: _475  and  _476
REMARK  196  A    between atoms: _475  and  _478
REMARK  197  A    between atoms: _478  and  _479
REMARK  198  A    between atoms: _479  and  _480
REMARK  199  A    between atoms: _480  and  _481
REMARK  200  A    between atoms: _490  and  _492
REMARK  201  A    between atoms: _492  and  _493
REMARK  202  A    between atoms: _492  and  _495
REMARK  203  A    between atoms: _495  and  _496
REMARK                            x       y       z     vdW  Elec       q    Type
REMARK                         _______ _______ _______ _____ _____    ______ ____
ROOT
ATOM      1  O   HOH     1      29.986  20.566  11.268  0.00  0.00    +0.000 OA
ENDROOT
TORSDOF 0
REMARK  Name = ../refined-set-2016/2idw/2idw_pocket.pdb
REMARK  203 active torsions:
REMARK  status: ('A' for Active; 'I' for Inactive)
REMARK    1  A    between atoms: _1  and  _3
REMARK    2  A    between atoms: _3  and  _4
REMARK    3  A    between atoms: _3  and  _6
REMARK    4  A    between atoms: _6  and  _7
REMARK    5  A    between atoms: _7  and  _8
REMARK    6  A    between atoms: _8  and  _9
REMARK    7  A    between atoms: _18  and  _20
REMARK    8  A    between atoms: _20  and  _21
REMARK    9  A    between atoms: _20  and  _23
REMARK   10  A    between atoms: _23  and  _24
REMARK   11  A    between atoms: _27  and  _29
REMARK   12  A    between atoms: _29  and  _30
REMARK   13  A    between atoms: _29  and  _32
REMARK   14  A    between atoms: _32  and  _33
REMARK   15  A    between atoms: _36  and  _38
REMARK   16  A    between atoms: _38  and  _39
REMARK   17  A    between atoms: _38  and  _41
REMARK   18  A    between atoms: _41  and  _42
REMARK   19  A    between atoms: _45  and  _47
REMARK   20  A    between atoms: _47  and  _48
REMARK   21  A    between atoms: _47  and  _50
REMARK   22  A    between atoms: _50  and  _51
REMARK   23  A    between atoms: _54  and  _56
REMARK   24  A    between atoms: _56  and  _57
REMARK   25  A    between atoms: _59  and  _61
REMARK   26  A    between atoms: _61  and  _62
REMARK   27  A    between atoms: _65  and  _67
REMARK   28  A    between atoms: _67  and  _68
REMARK   29  A    between atoms: _67  and  _70
REMARK   30  A    between atoms: _70  and  _71
REMARK   31  A    between atoms: _74  and  _76
REMARK   32  A    between atoms: _76  and  _77
REMARK   33  A    between atoms: _76  and  _79
REMARK   34  A    between atoms: _79  and  _80
REMARK   35  A    between atoms: _83  and  _85
REMARK   36  A    between atoms: _85  and  _86
REMARK   37  A    between atoms: _85  and  _88
REMARK   38  A    between atoms: _88  and  _89
REMARK   39  A    between atoms: _92  and  _94
REMARK   40  A    between atoms: _94  and  _95
REMARK   41  A    between atoms: _94  and  _97
REMARK   42  A    between atoms: _100  and  _102
REMARK   43  A    between atoms: _102  and  _103
REMARK   44  A    between atoms: _102  and  _105
REMARK   45  A    between atoms: _105  and  _106
REMARK   46  A    between atoms: _106  and  _107
REMARK   47  A    between atoms: _107  and  _108
REMARK   48  A    between atoms: _108  and  _109
REMARK   49  A    between atoms: _113  and  _115
REMARK   50  A    between atoms: _115  and  _116
REMARK   51  A    between atoms: _115  and  _118
REMARK   52  A    between atoms: _118  and  _119
REMARK   53  A    between atoms: _119  and  _120
REMARK   54  A    between atoms: _122  and  _124
REMARK   55  A    between atoms: _124  and  _125
REMARK   56  A    between atoms: _124  and  _127
REMARK   57  A    between atoms: _127  and  _128
REMARK   58  A    between atoms: _131  and  _133
REMARK   59  A    between atoms: _133  and  _134
REMARK   60  A    between atoms: _136  and  _138
REMARK   61  A    between atoms: _138  and  _139
REMARK   62  A    between atoms: _141  and  _143
REMARK   63  A    between atoms: _143  and  _144
REMARK   64  A    between atoms: _143  and  _146
REMARK   65  A    between atoms: _146  and  _147
REMARK   66  A    between atoms: _150  and  _152
REMARK   67  A    between atoms: _152  and  _153
REMARK   68  A    between atoms: _155  and  _157
REMARK   69  A    between atoms: _157  and  _158
REMARK   70  A    between atoms: _160  and  _162
REMARK   71  A    between atoms: _162  and  _163
REMARK   72  A    between atoms: _162  and  _165
REMARK   73  A    between atoms: _165  and  _166
REMARK   74  A    between atoms: _172  and  _174
REMARK   75  A    between atoms: _174  and  _175
REMARK   76  A    between atoms: _174  and  _177
REMARK   77  A    between atoms: _177  and  _178
REMARK   78  A    between atoms: _181  and  _183
REMARK   79  A    between atoms: _183  and  _184
REMARK   80  A    between atoms: _183  and  _186
REMARK   81  A    between atoms: _189  and  _191
REMARK   82  A    between atoms: _191  and  _192
REMARK   83  A    between atoms: _191  and  _194
REMARK   84  A    between atoms: _194  and  _195
REMARK   85  A    between atoms: _198  and  _200
REMARK   86  A    between atoms: _200  and  _201
REMARK   87  A    between atoms: _200  and  _203
REMARK   88  A    between atoms: _203  and  _204
REMARK   89  A    between atoms: _208  and  _209
REMARK   90  A    between atoms: _214  and  _216
REMARK   91  A    between atoms: _216  and  _217
REMARK   92  A    between atoms: _220  and  _222
REMARK   93  A    between atoms: _222  and  _223
REMARK   94  A    between atoms: _222  and  _225
REMARK   95  A    between atoms: _225  and  _226
REMARK   96  A    between atoms: _231  and  _233
REMARK   97  A    between atoms: _233  and  _234
REMARK   98  A    between atoms: _233  and  _236
REMARK   99  A    between atoms: _236  and  _237
REMARK  100  A    between atoms: _240  and  _242
REMARK  101  A    between atoms: _242  and  _243
REMARK  102  A    between atoms: _242  and  _245
REMARK  103  A    between atoms: _245  and  _246
REMARK  104  A    between atoms: _249  and  _251
REMARK  105  A    between atoms: _251  and  _252
REMARK  106  A    between atoms: _254  and  _256
REMARK  107  A    between atoms: _256  and  _257
REMARK  108  A    between atoms: _256  and  _259
REMARK  109  A    between atoms: _259  and  _260
REMARK  110  A    between atoms: _260  and  _261
REMARK  111  A    between atoms: _261  and  _262
REMARK  112  A    between atoms: _271  and  _273
REMARK  113  A    between atoms: _273  and  _274
REMARK  114  A    between atoms: _273  and  _276
REMARK  115  A    between atoms: _276  and  _277
REMARK  116  A    between atoms: _277  and  _278
REMARK  117  A    between atoms: _278  and  _279
REMARK  118  A    between atoms: _288  and  _290
REMARK  119  A    between atoms: _290  and  _291
REMARK  120  A    between atoms: _290  and  _293
REMARK  121  A    between atoms: _293  and  _294
REMARK  122  A    between atoms: _297  and  _299
REMARK  123  A    between atoms: _299  and  _300
REMARK  124  A    between atoms: _299  and  _302
REMARK  125  A    between atoms: _302  and  _303
REMARK  126  A    between atoms: _306  and  _308
REMARK  127  A    between atoms: _308  and  _309
REMARK  128  A    between atoms: _308  and  _311
REMARK  129  A    between atoms: _311  and  _312
REMARK  130  A    between atoms: _315  and  _317
REMARK  131  A    between atoms: _317  and  _318
REMARK  132  A    between atoms: _317  and  _320
REMARK  133  A    between atoms: _320  and  _321
REMARK  134  A    between atoms: _324  and  _326
REMARK  135  A    between atoms: _326  and  _327
REMARK  136  A    between atoms: _329  and  _331
REMARK  137  A    between atoms: _331  and  _332
REMARK  138  A    between atoms: _335  and  _337
REMARK  139  A    between atoms: _337  and  _338
REMARK  140  A    between atoms: _337  and  _340
REMARK  141  A    between atoms: _340  and  _341
REMARK  142  A    between atoms: _344  and  _346
REMARK  143  A    between atoms: _346  and  _347
REMARK  144  A    between atoms: _346  and  _349
REMARK  145  A    between atoms: _349  and  _350
REMARK  146  A    between atoms: _353  and  _355
REMARK  147  A    between atoms: _355  and  _356
REMARK  148  A    between atoms: _355  and  _358
REMARK  149  A    between atoms: _358  and  _359
REMARK  150  A    between atoms: _362  and  _364
REMARK  151  A    between atoms: _364  and  _365
REMARK  152  A    between atoms: _364  and  _367
REMARK  153  A    between atoms: _370  and  _372
REMARK  154  A    between atoms: _372  and  _373
REMARK  155  A    between atoms: _372  and  _375
REMARK  156  A    between atoms: _375  and  _376
REMARK  157  A    between atoms: _379  and  _381
REMARK  158  A    between atoms: _381  and  _382
REMARK  159  A    between atoms: _384  and  _386
REMARK  160  A    between atoms: _386  and  _387
REMARK  161  A    between atoms: _389  and  _391
REMARK  162  A    between atoms: _391  and  _392
REMARK  163  A    between atoms: _391  and  _394
REMARK  164  A    between atoms: _394  and  _395
REMARK  165  A    between atoms: _398  and  _400
REMARK  166  A    between atoms: _400  and  _401
REMARK  167  A    between atoms: _403  and  _405
REMARK  168  A    between atoms: _405  and  _406
REMARK  169  A    between atoms: _408  and  _410
REMARK  170  A    between atoms: _410  and  _411
REMARK  171  A    between atoms: _410  and  _413
REMARK  172  A    between atoms: _413  and  _414
REMARK  173  A    between atoms: _417  and  _419
REMARK  174  A    between atoms: _419  and  _420
REMARK  175  A    between atoms: _419  and  _422
REMARK  176  A    between atoms: _422  and  _423
REMARK  177  A    between atoms: _427  and  _428
REMARK  178  A    between atoms: _433  and  _435
REMARK  179  A    between atoms: _435  and  _436
REMARK  180  A    between atoms: _439  and  _441
REMARK  181  A    between atoms: _441  and  _442
REMARK  182  A    between atoms: _441  and  _444
REMARK  183  A    between atoms: _444  and  _445
REMARK  184  A    between atoms: _450  and  _452
REMARK  185  A    between atoms: _452  and  _453
REMARK  186  A    between atoms: _452  and  _455
REMARK  187  A    between atoms: _455  and  _456
REMARK  188  A    between atoms: _459  and  _461
REMARK  189  A    between atoms: _461  and  _462
REMARK  190  A    between atoms: _461  and  _464
REMARK  191  A    between atoms: _464  and  _465
REMARK  192  A    between atoms: _468  and  _470
REMARK  193  A    between atoms: _470  and  _471
REMARK  194  A    between atoms: _473  and  _475
REMARK  195  A    between atoms: _475  and  _476
REMARK  196  A    between atoms: _475  and  _478
REMARK  197  A    between atoms: _478  and  _479
REMARK  198  A    between atoms: _479  and  _480
REMARK  199  A    between atoms: _480  and  _481
REMARK  200  A    between atoms: _490  and  _492
REMARK  201  A    between atoms: _492  and  _493
REMARK  202  A    between atoms: _492  and  _495
REMARK  203  A    between atoms: _495  and  _496
REMARK                            x       y       z     vdW  Elec       q    Type
REMARK                         _______ _______ _______ _____ _____    ______ ____
ROOT
ATOM      1  O   HOH     1      14.908  30.369   4.524  0.00  0.00    +0.000 OA
ENDROOT
TORSDOF 0
REMARK  Name = ../refined-set-2016/2idw/2idw_pocket.pdb
REMARK  203 active torsions:
REMARK  status: ('A' for Active; 'I' for Inactive)
REMARK    1  A    between atoms: _1  and  _3
REMARK    2  A    between atoms: _3  and  _4
REMARK    3  A    between atoms: _3  and  _6
REMARK    4  A    between atoms: _6  and  _7
REMARK    5  A    between atoms: _7  and  _8
REMARK    6  A    between atoms: _8  and  _9
REMARK    7  A    between atoms: _18  and  _20
REMARK    8  A    between atoms: _20  and  _21
REMARK    9  A    between atoms: _20  and  _23
REMARK   10  A    between atoms: _23  and  _24
REMARK   11  A    between atoms: _27  and  _29
REMARK   12  A    between atoms: _29  and  _30
REMARK   13  A    between atoms: _29  and  _32
REMARK   14  A    between atoms: _32  and  _33
REMARK   15  A    between atoms: _36  and  _38
REMARK   16  A    between atoms: _38  and  _39
REMARK   17  A    between atoms: _38  and  _41
REMARK   18  A    between atoms: _41  and  _42
REMARK   19  A    between atoms: _45  and  _47
REMARK   20  A    between atoms: _47  and  _48
REMARK   21  A    between atoms: _47  and  _50
REMARK   22  A    between atoms: _50  and  _51
REMARK   23  A    between atoms: _54  and  _56
REMARK   24  A    between atoms: _56  and  _57
REMARK   25  A    between atoms: _59  and  _61
REMARK   26  A    between atoms: _61  and  _62
REMARK   27  A    between atoms: _65  and  _67
REMARK   28  A    between atoms: _67  and  _68
REMARK   29  A    between atoms: _67  and  _70
REMARK   30  A    between atoms: _70  and  _71
REMARK   31  A    between atoms: _74  and  _76
REMARK   32  A    between atoms: _76  and  _77
REMARK   33  A    between atoms: _76  and  _79
REMARK   34  A    between atoms: _79  and  _80
REMARK   35  A    between atoms: _83  and  _85
REMARK   36  A    between atoms: _85  and  _86
REMARK   37  A    between atoms: _85  and  _88
REMARK   38  A    between atoms: _88  and  _89
REMARK   39  A    between atoms: _92  and  _94
REMARK   40  A    between atoms: _94  and  _95
REMARK   41  A    between atoms: _94  and  _97
REMARK   42  A    between atoms: _100  and  _102
REMARK   43  A    between atoms: _102  and  _103
REMARK   44  A    between atoms: _102  and  _105
REMARK   45  A    between atoms: _105  and  _106
REMARK   46  A    between atoms: _106  and  _107
REMARK   47  A    between atoms: _107  and  _108
REMARK   48  A    between atoms: _108  and  _109
REMARK   49  A    between atoms: _113  and  _115
REMARK   50  A    between atoms: _115  and  _116
REMARK   51  A    between atoms: _115  and  _118
REMARK   52  A    between atoms: _118  and  _119
REMARK   53  A    between atoms: _119  and  _120
REMARK   54  A    between atoms: _122  and  _124
REMARK   55  A    between atoms: _124  and  _125
REMARK   56  A    between atoms: _124  and  _127
REMARK   57  A    between atoms: _127  and  _128
REMARK   58  A    between atoms: _131  and  _133
REMARK   59  A    between atoms: _133  and  _134
REMARK   60  A    between atoms: _136  and  _138
REMARK   61  A    between atoms: _138  and  _139
REMARK   62  A    between atoms: _141  and  _143
REMARK   63  A    between atoms: _143  and  _144
REMARK   64  A    between atoms: _143  and  _146
REMARK   65  A    between atoms: _146  and  _147
REMARK   66  A    between atoms: _150  and  _152
REMARK   67  A    between atoms: _152  and  _153
REMARK   68  A    between atoms: _155  and  _157
REMARK   69  A    between atoms: _157  and  _158
REMARK   70  A    between atoms: _160  and  _162
REMARK   71  A    between atoms: _162  and  _163
REMARK   72  A    between atoms: _162  and  _165
REMARK   73  A    between atoms: _165  and  _166
REMARK   74  A    between atoms: _172  and  _174
REMARK   75  A    between atoms: _174  and  _175
REMARK   76  A    between atoms: _174  and  _177
REMARK   77  A    between atoms: _177  and  _178
REMARK   78  A    between atoms: _181  and  _183
REMARK   79  A    between atoms: _183  and  _184
REMARK   80  A    between atoms: _183  and  _186
REMARK   81  A    between atoms: _189  and  _191
REMARK   82  A    between atoms: _191  and  _192
REMARK   83  A    between atoms: _191  and  _194
REMARK   84  A    between atoms: _194  and  _195
REMARK   85  A    between atoms: _198  and  _200
REMARK   86  A    between atoms: _200  and  _201
REMARK   87  A    between atoms: _200  and  _203
REMARK   88  A    between atoms: _203  and  _204
REMARK   89  A    between atoms: _208  and  _209
REMARK   90  A    between atoms: _214  and  _216
REMARK   91  A    between atoms: _216  and  _217
REMARK   92  A    between atoms: _220  and  _222
REMARK   93  A    between atoms: _222  and  _223
REMARK   94  A    between atoms: _222  and  _225
REMARK   95  A    between atoms: _225  and  _226
REMARK   96  A    between atoms: _231  and  _233
REMARK   97  A    between atoms: _233  and  _234
REMARK   98  A    between atoms: _233  and  _236
REMARK   99  A    between atoms: _236  and  _237
REMARK  100  A    between atoms: _240  and  _242
REMARK  101  A    between atoms: _242  and  _243
REMARK  102  A    between atoms: _242  and  _245
REMARK  103  A    between atoms: _245  and  _246
REMARK  104  A    between atoms: _249  and  _251
REMARK  105  A    between atoms: _251  and  _252
REMARK  106  A    between atoms: _254  and  _256
REMARK  107  A    between atoms: _256  and  _257
REMARK  108  A    between atoms: _256  and  _259
REMARK  109  A    between atoms: _259  and  _260
REMARK  110  A    between atoms: _260  and  _261
REMARK  111  A    between atoms: _261  and  _262
REMARK  112  A    between atoms: _271  and  _273
REMARK  113  A    between atoms: _273  and  _274
REMARK  114  A    between atoms: _273  and  _276
REMARK  115  A    between atoms: _276  and  _277
REMARK  116  A    between atoms: _277  and  _278
REMARK  117  A    between atoms: _278  and  _279
REMARK  118  A    between atoms: _288  and  _290
REMARK  119  A    between atoms: _290  and  _291
REMARK  120  A    between atoms: _290  and  _293
REMARK  121  A    between atoms: _293  and  _294
REMARK  122  A    between atoms: _297  and  _299
REMARK  123  A    between atoms: _299  and  _300
REMARK  124  A    between atoms: _299  and  _302
REMARK  125  A    between atoms: _302  and  _303
REMARK  126  A    between atoms: _306  and  _308
REMARK  127  A    between atoms: _308  and  _309
REMARK  128  A    between atoms: _308  and  _311
REMARK  129  A    between atoms: _311  and  _312
REMARK  130  A    between atoms: _315  and  _317
REMARK  131  A    between atoms: _317  and  _318
REMARK  132  A    between atoms: _317  and  _320
REMARK  133  A    between atoms: _320  and  _321
REMARK  134  A    between atoms: _324  and  _326
REMARK  135  A    between atoms: _326  and  _327
REMARK  136  A    between atoms: _329  and  _331
REMARK  137  A    between atoms: _331  and  _332
REMARK  138  A    between atoms: _335  and  _337
REMARK  139  A    between atoms: _337  and  _338
REMARK  140  A    between atoms: _337  and  _340
REMARK  141  A    between atoms: _340  and  _341
REMARK  142  A    between atoms: _344  and  _346
REMARK  143  A    between atoms: _346  and  _347
REMARK  144  A    between atoms: _346  and  _349
REMARK  145  A    between atoms: _349  and  _350
REMARK  146  A    between atoms: _353  and  _355
REMARK  147  A    between atoms: _355  and  _356
REMARK  148  A    between atoms: _355  and  _358
REMARK  149  A    between atoms: _358  and  _359
REMARK  150  A    between atoms: _362  and  _364
REMARK  151  A    between atoms: _364  and  _365
REMARK  152  A    between atoms: _364  and  _367
REMARK  153  A    between atoms: _370  and  _372
REMARK  154  A    between atoms: _372  and  _373
REMARK  155  A    between atoms: _372  and  _375
REMARK  156  A    between atoms: _375  and  _376
REMARK  157  A    between atoms: _379  and  _381
REMARK  158  A    between atoms: _381  and  _382
REMARK  159  A    between atoms: _384  and  _386
REMARK  160  A    between atoms: _386  and  _387
REMARK  161  A    between atoms: _389  and  _391
REMARK  162  A    between atoms: _391  and  _392
REMARK  163  A    between atoms: _391  and  _394
REMARK  164  A    between atoms: _394  and  _395
REMARK  165  A    between atoms: _398  and  _400
REMARK  166  A    between atoms: _400  and  _401
REMARK  167  A    between atoms: _403  and  _405
REMARK  168  A    between atoms: _405  and  _406
REMARK  169  A    between atoms: _408  and  _410
REMARK  170  A    between atoms: _410  and  _411
REMARK  171  A    between atoms: _410  and  _413
REMARK  172  A    between atoms: _413  and  _414
REMARK  173  A    between atoms: _417  and  _419
REMARK  174  A    between atoms: _419  and  _420
REMARK  175  A    between atoms: _419  and  _422
REMARK  176  A    between atoms: _422  and  _423
REMARK  177  A    between atoms: _427  and  _428
REMARK  178  A    between atoms: _433  and  _435
REMARK  179  A    between atoms: _435  and  _436
REMARK  180  A    between atoms: _439  and  _441
REMARK  181  A    between atoms: _441  and  _442
REMARK  182  A    between atoms: _441  and  _444
REMARK  183  A    between atoms: _444  and  _445
REMARK  184  A    between atoms: _450  and  _452
REMARK  185  A    between atoms: _452  and  _453
REMARK  186  A    between atoms: _452  and  _455
REMARK  187  A    between atoms: _455  and  _456
REMARK  188  A    between atoms: _459  and  _461
REMARK  189  A    between atoms: _461  and  _462
REMARK  190  A    between atoms: _461  and  _464
REMARK  191  A    between atoms: _464  and  _465
REMARK  192  A    between atoms: _468  and  _470
REMARK  193  A    between atoms: _470  and  _471
REMARK  194  A    between atoms: _473  and  _475
REMARK  195  A    between atoms: _475  and  _476
REMARK  196  A    between atoms: _475  and  _478
REMARK  197  A    between atoms: _478  and  _479
REMARK  198  A    between atoms: _479  and  _480
REMARK  199  A    between atoms: _480  and  _481
REMARK  200  A    between atoms: _490  and  _492
REMARK  201  A    between atoms: _492  and  _493
REMARK  202  A    between atoms: _492  and  _495
REMARK  203  A    between atoms: _495  and  _496
REMARK                            x       y       z     vdW  Elec       q    Type
REMARK                         _______ _______ _______ _____ _____    ______ ____
ROOT
ATOM      1  O   HOH     1      23.241  21.963   8.484  0.00  0.00    +0.000 OA
ENDROOT
TORSDOF 0
