REMARK  Name = ../refined-set-2016/3s75/3s75_pocket.pdb
REMARK  144 active torsions:
REMARK  status: ('A' for Active; 'I' for Inactive)
REMARK    1  A    between atoms: _1  and  _3
REMARK    2  A    between atoms: _3  and  _4
REMARK    3  A    between atoms: _3  and  _6
REMARK    4  A    between atoms: _6  and  _7
REMARK    5  A    between atoms: _17  and  _19
REMARK    6  A    between atoms: _19  and  _20
REMARK    7  A    between atoms: _19  and  _22
REMARK    8  A    between atoms: _22  and  _23
REMARK    9  A    between atoms: _28  and  _29
REMARK   10  A    between atoms: _31  and  _33
REMARK   11  A    between atoms: _33  and  _34
REMARK   12  A    between atoms: _33  and  _36
REMARK   13  A    between atoms: _36  and  _37
REMARK   14  A    between atoms: _40  and  _41
REMARK   15  A    between atoms: _46  and  _48
REMARK   16  A    between atoms: _48  and  _49
REMARK   17  A    between atoms: _48  and  _51
REMARK   18  A    between atoms: _51  and  _52
REMARK   19  A    between atoms: _57  and  _59
REMARK   20  A    between atoms: _59  and  _60
REMARK   21  A    between atoms: _63  and  _65
REMARK   22  A    between atoms: _65  and  _66
REMARK   23  A    between atoms: _65  and  _68
REMARK   24  A    between atoms: _68  and  _69
REMARK   25  A    between atoms: _74  and  _76
REMARK   26  A    between atoms: _76  and  _77
REMARK   27  A    between atoms: _76  and  _79
REMARK   28  A    between atoms: _79  and  _80
REMARK   29  A    between atoms: _83  and  _85
REMARK   30  A    between atoms: _85  and  _86
REMARK   31  A    between atoms: _85  and  _88
REMARK   32  A    between atoms: _88  and  _89
REMARK   33  A    between atoms: _89  and  _90
REMARK   34  A    between atoms: _95  and  _97
REMARK   35  A    between atoms: _97  and  _98
REMARK   36  A    between atoms: _97  and  _100
REMARK   37  A    between atoms: _100  and  _101
REMARK   38  A    between atoms: _107  and  _109
REMARK   39  A    between atoms: _120  and  _123
REMARK   40  A    between atoms: _123  and  _124
REMARK   41  A    between atoms: _132  and  _133
REMARK   42  A    between atoms: _141  and  _143
REMARK   43  A    between atoms: _143  and  _144
REMARK   44  A    between atoms: _143  and  _146
REMARK   45  A    between atoms: _146  and  _147
REMARK   46  A    between atoms: _147  and  _148
REMARK   47  A    between atoms: _151  and  _153
REMARK   48  A    between atoms: _153  and  _154
REMARK   49  A    between atoms: _153  and  _156
REMARK   50  A    between atoms: _156  and  _157
REMARK   51  A    between atoms: _162  and  _164
REMARK   52  A    between atoms: _164  and  _165
REMARK   53  A    between atoms: _164  and  _167
REMARK   54  A    between atoms: _167  and  _168
REMARK   55  A    between atoms: _168  and  _169
REMARK   56  A    between atoms: _172  and  _174
REMARK   57  A    between atoms: _174  and  _175
REMARK   58  A    between atoms: _174  and  _177
REMARK   59  A    between atoms: _177  and  _178
REMARK   60  A    between atoms: _181  and  _183
REMARK   61  A    between atoms: _183  and  _184
REMARK   62  A    between atoms: _183  and  _186
REMARK   63  A    between atoms: _186  and  _187
REMARK   64  A    between atoms: _188  and  ZN_408
REMARK   65  A    between atoms: _192  and  _194
REMARK   66  A    between atoms: _194  and  _195
REMARK   67  A    between atoms: _194  and  _197
REMARK   68  A    between atoms: _197  and  _198
REMARK   69  A    between atoms: _201  and  _203
REMARK   70  A    between atoms: _203  and  _204
REMARK   71  A    between atoms: _203  and  _206
REMARK   72  A    between atoms: _209  and  _211
REMARK   73  A    between atoms: _211  and  _212
REMARK   74  A    between atoms: _211  and  _214
REMARK   75  A    between atoms: _214  and  _215
REMARK   76  A    between atoms: _220  and  _222
REMARK   77  A    between atoms: _222  and  _223
REMARK   78  A    between atoms: _222  and  _225
REMARK   79  A    between atoms: _225  and  _226
REMARK   80  A    between atoms: _232  and  _234
REMARK   81  A    between atoms: _234  and  _235
REMARK   82  A    between atoms: _234  and  _237
REMARK   83  A    between atoms: _240  and  _242
REMARK   84  A    between atoms: _242  and  _243
REMARK   85  A    between atoms: _242  and  _245
REMARK   86  A    between atoms: _249  and  _251
REMARK   87  A    between atoms: _251  and  _252
REMARK   88  A    between atoms: _255  and  _257
REMARK   89  A    between atoms: _257  and  _258
REMARK   90  A    between atoms: _257  and  _260
REMARK   91  A    between atoms: _263  and  _265
REMARK   92  A    between atoms: _265  and  _266
REMARK   93  A    between atoms: _265  and  _268
REMARK   94  A    between atoms: _268  and  _269
REMARK   95  A    between atoms: _272  and  _274
REMARK   96  A    between atoms: _274  and  _275
REMARK   97  A    between atoms: _277  and  _279
REMARK   98  A    between atoms: _279  and  _280
REMARK   99  A    between atoms: _282  and  _284
REMARK  100  A    between atoms: _284  and  _285
REMARK  101  A    between atoms: _284  and  _287
REMARK  102  A    between atoms: _287  and  _288
REMARK  103  A    between atoms: _290  and  _292
REMARK  104  A    between atoms: _292  and  _293
REMARK  105  A    between atoms: _292  and  _295
REMARK  106  A    between atoms: _295  and  _296
REMARK  107  A    between atoms: _299  and  _301
REMARK  108  A    between atoms: _301  and  _302
REMARK  109  A    between atoms: _301  and  _304
REMARK  110  A    between atoms: _304  and  _305
REMARK  111  A    between atoms: _308  and  _310
REMARK  112  A    between atoms: _310  and  _311
REMARK  113  A    between atoms: _310  and  _313
REMARK  114  A    between atoms: _313  and  _314
REMARK  115  A    between atoms: _318  and  _319
REMARK  116  A    between atoms: _325  and  _326
REMARK  117  A    between atoms: _331  and  _333
REMARK  118  A    between atoms: _333  and  _334
REMARK  119  A    between atoms: _333  and  _336
REMARK  120  A    between atoms: _336  and  _337
REMARK  121  A    between atoms: _340  and  _342
REMARK  122  A    between atoms: _342  and  _343
REMARK  123  A    between atoms: _342  and  _345
REMARK  124  A    between atoms: _345  and  _346
REMARK  125  A    between atoms: _349  and  _351
REMARK  126  A    between atoms: _351  and  _352
REMARK  127  A    between atoms: _351  and  _354
REMARK  128  A    between atoms: _356  and  _358
REMARK  129  A    between atoms: _358  and  _359
REMARK  130  A    between atoms: _358  and  _361
REMARK  131  A    between atoms: _364  and  _366
REMARK  132  A    between atoms: _366  and  _367
REMARK  133  A    between atoms: _366  and  _369
REMARK  134  A    between atoms: _369  and  _370
REMARK  135  A    between atoms: _380  and  _382
REMARK  136  A    between atoms: _382  and  _383
REMARK  137  A    between atoms: _382  and  _385
REMARK  138  A    between atoms: _385  and  _386
REMARK  139  A    between atoms: _391  and  _393
REMARK  140  A    between atoms: _393  and  _394
REMARK  141  A    between atoms: _393  and  _396
REMARK  142  A    between atoms: _396  and  _397
REMARK  143  A    between atoms: _397  and  _398
REMARK  144  A    between atoms: _398  and  _399
REMARK                            x       y       z     vdW  Elec       q    Type
REMARK                         _______ _______ _______ _____ _____    ______ ____
ROOT
ATOM      1  CG  TRP A   1      26.975   0.124  12.253  0.00  0.00    -0.002 A 
ATOM      2  CD2 TRP A   1      25.611  -0.276  12.149  0.00  0.00    +0.013 A 
ATOM      3  CE3 TRP A   1      24.940  -1.495  12.369  0.00  0.00    +0.001 A 
ATOM      4  CZ3 TRP A   1      23.507  -1.501  12.161  0.00  0.00    +0.000 A 
ATOM      5  CH2 TRP A   1      22.800  -0.329  11.810  0.00  0.00    +0.001 A 
ATOM      6  CZ2 TRP A   1      23.435   0.868  11.635  0.00  0.00    +0.017 A 
ATOM      7  CE2 TRP A   1      24.843   0.908  11.834  0.00  0.00    +0.056 A 
ATOM      8  NE1 TRP A   1      25.710   1.969  11.692  0.00  0.00    -0.352 N 
ATOM      9  HE1 TRP A   1      25.454   2.938  11.416  0.00  0.00    +0.166 HD
ATOM     10  CD1 TRP A   1      27.002   1.506  11.987  0.00  0.00    +0.068 A 
ENDROOT
BRANCH   1  11
ATOM     11  CB  TRP A   1      28.142  -0.780  12.593  0.00  0.00    +0.053 C 
BRANCH  11  12
ATOM     12  CA  TRP A   1      28.803  -1.446  11.384  0.00  0.00    +0.137 C 
BRANCH  12  13
ATOM     13  N   TRP A   1      29.368  -0.399  10.455  0.00  0.00    -0.239 NA
ATOM     14  H   TRP A   1      29.034   0.585  10.508  0.00  0.00    +0.142 HD
ENDBRANCH  12  13
BRANCH  12  15
ATOM     15  C   TRP A   1      27.752  -2.241  10.616  0.00  0.00    +0.224 C 
ATOM     16  O   TRP A   1      27.145  -1.730   9.617  0.00  0.00    -0.287 OA
ENDBRANCH  12  15
ENDBRANCH  11  12
ENDBRANCH   1  11
TORSDOF 4
REMARK  Name = ../refined-set-2016/3s75/3s75_pocket.pdb
REMARK  144 active torsions:
REMARK  status: ('A' for Active; 'I' for Inactive)
REMARK    1  A    between atoms: _1  and  _3
REMARK    2  A    between atoms: _3  and  _4
REMARK    3  A    between atoms: _3  and  _6
REMARK    4  A    between atoms: _6  and  _7
REMARK    5  A    between atoms: _17  and  _19
REMARK    6  A    between atoms: _19  and  _20
REMARK    7  A    between atoms: _19  and  _22
REMARK    8  A    between atoms: _22  and  _23
REMARK    9  A    between atoms: _28  and  _29
REMARK   10  A    between atoms: _31  and  _33
REMARK   11  A    between atoms: _33  and  _34
REMARK   12  A    between atoms: _33  and  _36
REMARK   13  A    between atoms: _36  and  _37
REMARK   14  A    between atoms: _40  and  _41
REMARK   15  A    between atoms: _46  and  _48
REMARK   16  A    between atoms: _48  and  _49
REMARK   17  A    between atoms: _48  and  _51
REMARK   18  A    between atoms: _51  and  _52
REMARK   19  A    between atoms: _57  and  _59
REMARK   20  A    between atoms: _59  and  _60
REMARK   21  A    between atoms: _63  and  _65
REMARK   22  A    between atoms: _65  and  _66
REMARK   23  A    between atoms: _65  and  _68
REMARK   24  A    between atoms: _68  and  _69
REMARK   25  A    between atoms: _74  and  _76
REMARK   26  A    between atoms: _76  and  _77
REMARK   27  A    between atoms: _76  and  _79
REMARK   28  A    between atoms: _79  and  _80
REMARK   29  A    between atoms: _83  and  _85
REMARK   30  A    between atoms: _85  and  _86
REMARK   31  A    between atoms: _85  and  _88
REMARK   32  A    between atoms: _88  and  _89
REMARK   33  A    between atoms: _89  and  _90
REMARK   34  A    between atoms: _95  and  _97
REMARK   35  A    between atoms: _97  and  _98
REMARK   36  A    between atoms: _97  and  _100
REMARK   37  A    between atoms: _100  and  _101
REMARK   38  A    between atoms: _107  and  _109
REMARK   39  A    between atoms: _120  and  _123
REMARK   40  A    between atoms: _123  and  _124
REMARK   41  A    between atoms: _132  and  _133
REMARK   42  A    between atoms: _141  and  _143
REMARK   43  A    between atoms: _143  and  _144
REMARK   44  A    between atoms: _143  and  _146
REMARK   45  A    between atoms: _146  and  _147
REMARK   46  A    between atoms: _147  and  _148
REMARK   47  A    between atoms: _151  and  _153
REMARK   48  A    between atoms: _153  and  _154
REMARK   49  A    between atoms: _153  and  _156
REMARK   50  A    between atoms: _156  and  _157
REMARK   51  A    between atoms: _162  and  _164
REMARK   52  A    between atoms: _164  and  _165
REMARK   53  A    between atoms: _164  and  _167
REMARK   54  A    between atoms: _167  and  _168
REMARK   55  A    between atoms: _168  and  _169
REMARK   56  A    between atoms: _172  and  _174
REMARK   57  A    between atoms: _174  and  _175
REMARK   58  A    between atoms: _174  and  _177
REMARK   59  A    between atoms: _177  and  _178
REMARK   60  A    between atoms: _181  and  _183
REMARK   61  A    between atoms: _183  and  _184
REMARK   62  A    between atoms: _183  and  _186
REMARK   63  A    between atoms: _186  and  _187
REMARK   64  A    between atoms: _188  and  ZN_408
REMARK   65  A    between atoms: _192  and  _194
REMARK   66  A    between atoms: _194  and  _195
REMARK   67  A    between atoms: _194  and  _197
REMARK   68  A    between atoms: _197  and  _198
REMARK   69  A    between atoms: _201  and  _203
REMARK   70  A    between atoms: _203  and  _204
REMARK   71  A    between atoms: _203  and  _206
REMARK   72  A    between atoms: _209  and  _211
REMARK   73  A    between atoms: _211  and  _212
REMARK   74  A    between atoms: _211  and  _214
REMARK   75  A    between atoms: _214  and  _215
REMARK   76  A    between atoms: _220  and  _222
REMARK   77  A    between atoms: _222  and  _223
REMARK   78  A    between atoms: _222  and  _225
REMARK   79  A    between atoms: _225  and  _226
REMARK   80  A    between atoms: _232  and  _234
REMARK   81  A    between atoms: _234  and  _235
REMARK   82  A    between atoms: _234  and  _237
REMARK   83  A    between atoms: _240  and  _242
REMARK   84  A    between atoms: _242  and  _243
REMARK   85  A    between atoms: _242  and  _245
REMARK   86  A    between atoms: _249  and  _251
REMARK   87  A    between atoms: _251  and  _252
REMARK   88  A    between atoms: _255  and  _257
REMARK   89  A    between atoms: _257  and  _258
REMARK   90  A    between atoms: _257  and  _260
REMARK   91  A    between atoms: _263  and  _265
REMARK   92  A    between atoms: _265  and  _266
REMARK   93  A    between atoms: _265  and  _268
REMARK   94  A    between atoms: _268  and  _269
REMARK   95  A    between atoms: _272  and  _274
REMARK   96  A    between atoms: _274  and  _275
REMARK   97  A    between atoms: _277  and  _279
REMARK   98  A    between atoms: _279  and  _280
REMARK   99  A    between atoms: _282  and  _284
REMARK  100  A    between atoms: _284  and  _285
REMARK  101  A    between atoms: _284  and  _287
REMARK  102  A    between atoms: _287  and  _288
REMARK  103  A    between atoms: _290  and  _292
REMARK  104  A    between atoms: _292  and  _293
REMARK  105  A    between atoms: _292  and  _295
REMARK  106  A    between atoms: _295  and  _296
REMARK  107  A    between atoms: _299  and  _301
REMARK  108  A    between atoms: _301  and  _302
REMARK  109  A    between atoms: _301  and  _304
REMARK  110  A    between atoms: _304  and  _305
REMARK  111  A    between atoms: _308  and  _310
REMARK  112  A    between atoms: _310  and  _311
REMARK  113  A    between atoms: _310  and  _313
REMARK  114  A    between atoms: _313  and  _314
REMARK  115  A    between atoms: _318  and  _319
REMARK  116  A    between atoms: _325  and  _326
REMARK  117  A    between atoms: _331  and  _333
REMARK  118  A    between atoms: _333  and  _334
REMARK  119  A    between atoms: _333  and  _336
REMARK  120  A    between atoms: _336  and  _337
REMARK  121  A    between atoms: _340  and  _342
REMARK  122  A    between atoms: _342  and  _343
REMARK  123  A    between atoms: _342  and  _345
REMARK  124  A    between atoms: _345  and  _346
REMARK  125  A    between atoms: _349  and  _351
REMARK  126  A    between atoms: _351  and  _352
REMARK  127  A    between atoms: _351  and  _354
REMARK  128  A    between atoms: _356  and  _358
REMARK  129  A    between atoms: _358  and  _359
REMARK  130  A    between atoms: _358  and  _361
REMARK  131  A    between atoms: _364  and  _366
REMARK  132  A    between atoms: _366  and  _367
REMARK  133  A    between atoms: _366  and  _369
REMARK  134  A    between atoms: _369  and  _370
REMARK  135  A    between atoms: _380  and  _382
REMARK  136  A    between atoms: _382  and  _383
REMARK  137  A    between atoms: _382  and  _385
REMARK  138  A    between atoms: _385  and  _386
REMARK  139  A    between atoms: _391  and  _393
REMARK  140  A    between atoms: _393  and  _394
REMARK  141  A    between atoms: _393  and  _396
REMARK  142  A    between atoms: _396  and  _397
REMARK  143  A    between atoms: _397  and  _398
REMARK  144  A    between atoms: _398  and  _399
REMARK                            x       y       z     vdW  Elec       q    Type
REMARK                         _______ _______ _______ _____ _____    ______ ____
ROOT
ATOM      1  CG  TYR A   1      23.044  -6.951  11.914  0.00  0.00    -0.020 A 
ATOM      2  CD2 TYR A   1      22.657  -6.991  13.284  0.00  0.00    -0.001 A 
ATOM      3  CE2 TYR A   1      21.894  -5.983  13.800  0.00  0.00    +0.036 A 
ATOM      4  CZ  TYR A   1      21.420  -4.985  12.923  0.00  0.00    +0.134 A 
ATOM      5  CE1 TYR A   1      21.768  -4.977  11.556  0.00  0.00    +0.036 A 
ATOM      6  CD1 TYR A   1      22.578  -5.973  11.094  0.00  0.00    -0.001 A 
ENDROOT
BRANCH   4   7
ATOM      7  OH  TYR A   1      20.519  -4.015  13.356  0.00  0.00    -0.506 OA
ATOM      8  HH  TYR A   1      20.304  -3.407  12.605  0.00  0.00    +0.292 HD
ENDBRANCH   4   7
BRANCH   1   9
ATOM      9  CB  TYR A   1      23.966  -8.017  11.325  0.00  0.00    +0.051 C 
BRANCH   9  10
ATOM     10  CA  TYR A   1      25.453  -7.752  11.522  0.00  0.00    +0.137 C 
BRANCH  10  11
ATOM     11  N   TYR A   1      25.884  -6.547  10.772  0.00  0.00    -0.239 NA
ATOM     12  H   TYR A   1      25.995  -6.603   9.739  0.00  0.00    +0.142 HD
ENDBRANCH  10  11
BRANCH  10  13
ATOM     13  C   TYR A   1      26.248  -8.960  11.011  0.00  0.00    +0.224 C 
ATOM     14  O   TYR A   1      25.787 -10.080  11.078  0.00  0.00    -0.287 OA
ENDBRANCH  10  13
ENDBRANCH   9  10
ENDBRANCH   1   9
TORSDOF 5
REMARK  Name = ../refined-set-2016/3s75/3s75_pocket.pdb
REMARK  144 active torsions:
REMARK  status: ('A' for Active; 'I' for Inactive)
REMARK    1  A    between atoms: _1  and  _3
REMARK    2  A    between atoms: _3  and  _4
REMARK    3  A    between atoms: _3  and  _6
REMARK    4  A    between atoms: _6  and  _7
REMARK    5  A    between atoms: _17  and  _19
REMARK    6  A    between atoms: _19  and  _20
REMARK    7  A    between atoms: _19  and  _22
REMARK    8  A    between atoms: _22  and  _23
REMARK    9  A    between atoms: _28  and  _29
REMARK   10  A    between atoms: _31  and  _33
REMARK   11  A    between atoms: _33  and  _34
REMARK   12  A    between atoms: _33  and  _36
REMARK   13  A    between atoms: _36  and  _37
REMARK   14  A    between atoms: _40  and  _41
REMARK   15  A    between atoms: _46  and  _48
REMARK   16  A    between atoms: _48  and  _49
REMARK   17  A    between atoms: _48  and  _51
REMARK   18  A    between atoms: _51  and  _52
REMARK   19  A    between atoms: _57  and  _59
REMARK   20  A    between atoms: _59  and  _60
REMARK   21  A    between atoms: _63  and  _65
REMARK   22  A    between atoms: _65  and  _66
REMARK   23  A    between atoms: _65  and  _68
REMARK   24  A    between atoms: _68  and  _69
REMARK   25  A    between atoms: _74  and  _76
REMARK   26  A    between atoms: _76  and  _77
REMARK   27  A    between atoms: _76  and  _79
REMARK   28  A    between atoms: _79  and  _80
REMARK   29  A    between atoms: _83  and  _85
REMARK   30  A    between atoms: _85  and  _86
REMARK   31  A    between atoms: _85  and  _88
REMARK   32  A    between atoms: _88  and  _89
REMARK   33  A    between atoms: _89  and  _90
REMARK   34  A    between atoms: _95  and  _97
REMARK   35  A    between atoms: _97  and  _98
REMARK   36  A    between atoms: _97  and  _100
REMARK   37  A    between atoms: _100  and  _101
REMARK   38  A    between atoms: _107  and  _109
REMARK   39  A    between atoms: _120  and  _123
REMARK   40  A    between atoms: _123  and  _124
REMARK   41  A    between atoms: _132  and  _133
REMARK   42  A    between atoms: _141  and  _143
REMARK   43  A    between atoms: _143  and  _144
REMARK   44  A    between atoms: _143  and  _146
REMARK   45  A    between atoms: _146  and  _147
REMARK   46  A    between atoms: _147  and  _148
REMARK   47  A    between atoms: _151  and  _153
REMARK   48  A    between atoms: _153  and  _154
REMARK   49  A    between atoms: _153  and  _156
REMARK   50  A    between atoms: _156  and  _157
REMARK   51  A    between atoms: _162  and  _164
REMARK   52  A    between atoms: _164  and  _165
REMARK   53  A    between atoms: _164  and  _167
REMARK   54  A    between atoms: _167  and  _168
REMARK   55  A    between atoms: _168  and  _169
REMARK   56  A    between atoms: _172  and  _174
REMARK   57  A    between atoms: _174  and  _175
REMARK   58  A    between atoms: _174  and  _177
REMARK   59  A    between atoms: _177  and  _178
REMARK   60  A    between atoms: _181  and  _183
REMARK   61  A    between atoms: _183  and  _184
REMARK   62  A    between atoms: _183  and  _186
REMARK   63  A    between atoms: _186  and  _187
REMARK   64  A    between atoms: _188  and  ZN_408
REMARK   65  A    between atoms: _192  and  _194
REMARK   66  A    between atoms: _194  and  _195
REMARK   67  A    between atoms: _194  and  _197
REMARK   68  A    between atoms: _197  and  _198
REMARK   69  A    between atoms: _201  and  _203
REMARK   70  A    between atoms: _203  and  _204
REMARK   71  A    between atoms: _203  and  _206
REMARK   72  A    between atoms: _209  and  _211
REMARK   73  A    between atoms: _211  and  _212
REMARK   74  A    between atoms: _211  and  _214
REMARK   75  A    between atoms: _214  and  _215
REMARK   76  A    between atoms: _220  and  _222
REMARK   77  A    between atoms: _222  and  _223
REMARK   78  A    between atoms: _222  and  _225
REMARK   79  A    between atoms: _225  and  _226
REMARK   80  A    between atoms: _232  and  _234
REMARK   81  A    between atoms: _234  and  _235
REMARK   82  A    between atoms: _234  and  _237
REMARK   83  A    between atoms: _240  and  _242
REMARK   84  A    between atoms: _242  and  _243
REMARK   85  A    between atoms: _242  and  _245
REMARK   86  A    between atoms: _249  and  _251
REMARK   87  A    between atoms: _251  and  _252
REMARK   88  A    between atoms: _255  and  _257
REMARK   89  A    between atoms: _257  and  _258
REMARK   90  A    between atoms: _257  and  _260
REMARK   91  A    between atoms: _263  and  _265
REMARK   92  A    between atoms: _265  and  _266
REMARK   93  A    between atoms: _265  and  _268
REMARK   94  A    between atoms: _268  and  _269
REMARK   95  A    between atoms: _272  and  _274
REMARK   96  A    between atoms: _274  and  _275
REMARK   97  A    between atoms: _277  and  _279
REMARK   98  A    between atoms: _279  and  _280
REMARK   99  A    between atoms: _282  and  _284
REMARK  100  A    between atoms: _284  and  _285
REMARK  101  A    between atoms: _284  and  _287
REMARK  102  A    between atoms: _287  and  _288
REMARK  103  A    between atoms: _290  and  _292
REMARK  104  A    between atoms: _292  and  _293
REMARK  105  A    between atoms: _292  and  _295
REMARK  106  A    between atoms: _295  and  _296
REMARK  107  A    between atoms: _299  and  _301
REMARK  108  A    between atoms: _301  and  _302
REMARK  109  A    between atoms: _301  and  _304
REMARK  110  A    between atoms: _304  and  _305
REMARK  111  A    between atoms: _308  and  _310
REMARK  112  A    between atoms: _310  and  _311
REMARK  113  A    between atoms: _310  and  _313
REMARK  114  A    between atoms: _313  and  _314
REMARK  115  A    between atoms: _318  and  _319
REMARK  116  A    between atoms: _325  and  _326
REMARK  117  A    between atoms: _331  and  _333
REMARK  118  A    between atoms: _333  and  _334
REMARK  119  A    between atoms: _333  and  _336
REMARK  120  A    between atoms: _336  and  _337
REMARK  121  A    between atoms: _340  and  _342
REMARK  122  A    between atoms: _342  and  _343
REMARK  123  A    between atoms: _342  and  _345
REMARK  124  A    between atoms: _345  and  _346
REMARK  125  A    between atoms: _349  and  _351
REMARK  126  A    between atoms: _351  and  _352
REMARK  127  A    between atoms: _351  and  _354
REMARK  128  A    between atoms: _356  and  _358
REMARK  129  A    between atoms: _358  and  _359
REMARK  130  A    between atoms: _358  and  _361
REMARK  131  A    between atoms: _364  and  _366
REMARK  132  A    between atoms: _366  and  _367
REMARK  133  A    between atoms: _366  and  _369
REMARK  134  A    between atoms: _369  and  _370
REMARK  135  A    between atoms: _380  and  _382
REMARK  136  A    between atoms: _382  and  _383
REMARK  137  A    between atoms: _382  and  _385
REMARK  138  A    between atoms: _385  and  _386
REMARK  139  A    between atoms: _391  and  _393
REMARK  140  A    between atoms: _393  and  _394
REMARK  141  A    between atoms: _393  and  _396
REMARK  142  A    between atoms: _396  and  _397
REMARK  143  A    between atoms: _397  and  _398
REMARK  144  A    between atoms: _398  and  _399
REMARK                            x       y       z     vdW  Elec       q    Type
REMARK                         _______ _______ _______ _____ _____    ______ ____
ROOT
ATOM      1  C   SER A   1      18.750  -2.899  23.257  0.00  0.00    +0.244 C 
ATOM      2  N   PRO A   2      18.084  -4.056  23.009  0.00  0.00    -0.273 N 
ATOM      3  CA  PRO A   2      16.911  -4.572  23.702  0.00  0.00    +0.140 C 
ATOM      4  CB  PRO A   2      16.399  -5.604  22.668  0.00  0.00    +0.030 C 
ATOM      5  CG  PRO A   2      17.705  -6.241  22.061  0.00  0.00    +0.024 C 
ATOM      6  CD  PRO A   2      18.557  -4.982  21.957  0.00  0.00    +0.094 C 
ATOM      7  O   SER A   1      19.762  -2.557  22.639  0.00  0.00    -0.273 OA
ENDROOT
BRANCH   3   8
ATOM      8  C   PRO A   2      17.296  -5.298  24.991  0.00  0.00    +0.227 C 
ATOM      9  O   PRO A   2      18.513  -5.292  25.382  0.00  0.00    -0.286 OA
ENDBRANCH   3   8
BRANCH   1  10
ATOM     10  CA  SER A   1      18.208  -2.030  24.380  0.00  0.00    +0.175 C 
BRANCH  10  11
ATOM     11  N   SER A   1      19.296  -1.132  24.830  0.00  0.00    -0.236 NA
ATOM     12  H   SER A   1      19.786  -0.536  24.132  0.00  0.00    +0.142 HD
ENDBRANCH  10  11
BRANCH  10  13
ATOM     13  CB  SER A   1      17.095  -1.156  23.743  0.00  0.00    +0.163 C 
BRANCH  13  14
ATOM     14  OG  SER A   1      16.437  -0.449  24.857  0.00  0.00    -0.380 OA
ATOM     15  H   SER A   1      16.054  -1.111  25.486  0.00  0.00    +0.211 HD
ENDBRANCH  13  14
ENDBRANCH  10  13
ENDBRANCH   1  10
TORSDOF 5
REMARK  Name = ../refined-set-2016/3s75/3s75_pocket.pdb
REMARK  144 active torsions:
REMARK  status: ('A' for Active; 'I' for Inactive)
REMARK    1  A    between atoms: _1  and  _3
REMARK    2  A    between atoms: _3  and  _4
REMARK    3  A    between atoms: _3  and  _6
REMARK    4  A    between atoms: _6  and  _7
REMARK    5  A    between atoms: _17  and  _19
REMARK    6  A    between atoms: _19  and  _20
REMARK    7  A    between atoms: _19  and  _22
REMARK    8  A    between atoms: _22  and  _23
REMARK    9  A    between atoms: _28  and  _29
REMARK   10  A    between atoms: _31  and  _33
REMARK   11  A    between atoms: _33  and  _34
REMARK   12  A    between atoms: _33  and  _36
REMARK   13  A    between atoms: _36  and  _37
REMARK   14  A    between atoms: _40  and  _41
REMARK   15  A    between atoms: _46  and  _48
REMARK   16  A    between atoms: _48  and  _49
REMARK   17  A    between atoms: _48  and  _51
REMARK   18  A    between atoms: _51  and  _52
REMARK   19  A    between atoms: _57  and  _59
REMARK   20  A    between atoms: _59  and  _60
REMARK   21  A    between atoms: _63  and  _65
REMARK   22  A    between atoms: _65  and  _66
REMARK   23  A    between atoms: _65  and  _68
REMARK   24  A    between atoms: _68  and  _69
REMARK   25  A    between atoms: _74  and  _76
REMARK   26  A    between atoms: _76  and  _77
REMARK   27  A    between atoms: _76  and  _79
REMARK   28  A    between atoms: _79  and  _80
REMARK   29  A    between atoms: _83  and  _85
REMARK   30  A    between atoms: _85  and  _86
REMARK   31  A    between atoms: _85  and  _88
REMARK   32  A    between atoms: _88  and  _89
REMARK   33  A    between atoms: _89  and  _90
REMARK   34  A    between atoms: _95  and  _97
REMARK   35  A    between atoms: _97  and  _98
REMARK   36  A    between atoms: _97  and  _100
REMARK   37  A    between atoms: _100  and  _101
REMARK   38  A    between atoms: _107  and  _109
REMARK   39  A    between atoms: _120  and  _123
REMARK   40  A    between atoms: _123  and  _124
REMARK   41  A    between atoms: _132  and  _133
REMARK   42  A    between atoms: _141  and  _143
REMARK   43  A    between atoms: _143  and  _144
REMARK   44  A    between atoms: _143  and  _146
REMARK   45  A    between atoms: _146  and  _147
REMARK   46  A    between atoms: _147  and  _148
REMARK   47  A    between atoms: _151  and  _153
REMARK   48  A    between atoms: _153  and  _154
REMARK   49  A    between atoms: _153  and  _156
REMARK   50  A    between atoms: _156  and  _157
REMARK   51  A    between atoms: _162  and  _164
REMARK   52  A    between atoms: _164  and  _165
REMARK   53  A    between atoms: _164  and  _167
REMARK   54  A    between atoms: _167  and  _168
REMARK   55  A    between atoms: _168  and  _169
REMARK   56  A    between atoms: _172  and  _174
REMARK   57  A    between atoms: _174  and  _175
REMARK   58  A    between atoms: _174  and  _177
REMARK   59  A    between atoms: _177  and  _178
REMARK   60  A    between atoms: _181  and  _183
REMARK   61  A    between atoms: _183  and  _184
REMARK   62  A    between atoms: _183  and  _186
REMARK   63  A    between atoms: _186  and  _187
REMARK   64  A    between atoms: _188  and  ZN_408
REMARK   65  A    between atoms: _192  and  _194
REMARK   66  A    between atoms: _194  and  _195
REMARK   67  A    between atoms: _194  and  _197
REMARK   68  A    between atoms: _197  and  _198
REMARK   69  A    between atoms: _201  and  _203
REMARK   70  A    between atoms: _203  and  _204
REMARK   71  A    between atoms: _203  and  _206
REMARK   72  A    between atoms: _209  and  _211
REMARK   73  A    between atoms: _211  and  _212
REMARK   74  A    between atoms: _211  and  _214
REMARK   75  A    between atoms: _214  and  _215
REMARK   76  A    between atoms: _220  and  _222
REMARK   77  A    between atoms: _222  and  _223
REMARK   78  A    between atoms: _222  and  _225
REMARK   79  A    between atoms: _225  and  _226
REMARK   80  A    between atoms: _232  and  _234
REMARK   81  A    between atoms: _234  and  _235
REMARK   82  A    between atoms: _234  and  _237
REMARK   83  A    between atoms: _240  and  _242
REMARK   84  A    between atoms: _242  and  _243
REMARK   85  A    between atoms: _242  and  _245
REMARK   86  A    between atoms: _249  and  _251
REMARK   87  A    between atoms: _251  and  _252
REMARK   88  A    between atoms: _255  and  _257
REMARK   89  A    between atoms: _257  and  _258
REMARK   90  A    between atoms: _257  and  _260
REMARK   91  A    between atoms: _263  and  _265
REMARK   92  A    between atoms: _265  and  _266
REMARK   93  A    between atoms: _265  and  _268
REMARK   94  A    between atoms: _268  and  _269
REMARK   95  A    between atoms: _272  and  _274
REMARK   96  A    between atoms: _274  and  _275
REMARK   97  A    between atoms: _277  and  _279
REMARK   98  A    between atoms: _279  and  _280
REMARK   99  A    between atoms: _282  and  _284
REMARK  100  A    between atoms: _284  and  _285
REMARK  101  A    between atoms: _284  and  _287
REMARK  102  A    between atoms: _287  and  _288
REMARK  103  A    between atoms: _290  and  _292
REMARK  104  A    between atoms: _292  and  _293
REMARK  105  A    between atoms: _292  and  _295
REMARK  106  A    between atoms: _295  and  _296
REMARK  107  A    between atoms: _299  and  _301
REMARK  108  A    between atoms: _301  and  _302
REMARK  109  A    between atoms: _301  and  _304
REMARK  110  A    between atoms: _304  and  _305
REMARK  111  A    between atoms: _308  and  _310
REMARK  112  A    between atoms: _310  and  _311
REMARK  113  A    between atoms: _310  and  _313
REMARK  114  A    between atoms: _313  and  _314
REMARK  115  A    between atoms: _318  and  _319
REMARK  116  A    between atoms: _325  and  _326
REMARK  117  A    between atoms: _331  and  _333
REMARK  118  A    between atoms: _333  and  _334
REMARK  119  A    between atoms: _333  and  _336
REMARK  120  A    between atoms: _336  and  _337
REMARK  121  A    between atoms: _340  and  _342
REMARK  122  A    between atoms: _342  and  _343
REMARK  123  A    between atoms: _342  and  _345
REMARK  124  A    between atoms: _345  and  _346
REMARK  125  A    between atoms: _349  and  _351
REMARK  126  A    between atoms: _351  and  _352
REMARK  127  A    between atoms: _351  and  _354
REMARK  128  A    between atoms: _356  and  _358
REMARK  129  A    between atoms: _358  and  _359
REMARK  130  A    between atoms: _358  and  _361
REMARK  131  A    between atoms: _364  and  _366
REMARK  132  A    between atoms: _366  and  _367
REMARK  133  A    between atoms: _366  and  _369
REMARK  134  A    between atoms: _369  and  _370
REMARK  135  A    between atoms: _380  and  _382
REMARK  136  A    between atoms: _382  and  _383
REMARK  137  A    between atoms: _382  and  _385
REMARK  138  A    between atoms: _385  and  _386
REMARK  139  A    between atoms: _391  and  _393
REMARK  140  A    between atoms: _393  and  _394
REMARK  141  A    between atoms: _393  and  _396
REMARK  142  A    between atoms: _396  and  _397
REMARK  143  A    between atoms: _397  and  _398
REMARK  144  A    between atoms: _398  and  _399
REMARK                            x       y       z     vdW  Elec       q    Type
REMARK                         _______ _______ _______ _____ _____    ______ ____
ROOT
ATOM      1  CB  ASN A   1      18.441   1.997   5.311  0.00  0.00    +0.110 C 
ENDROOT
BRANCH   1   2
ATOM      2  CG  ASN A   1      18.118   1.171   6.531  0.00  0.00    +0.221 C 
ATOM      3  ND2 ASN A   1      17.440   1.797   7.457  0.00  0.00    -0.329 N 
ATOM      4 HD21 ASN A   1      17.124   1.285   8.306  0.00  0.00    +0.145 HD
ATOM      5 HD22 ASN A   1      17.217   2.807   7.345  0.00  0.00    +0.145 HD
ATOM      6  OD1 ASN A   1      18.407  -0.006   6.609  0.00  0.00    -0.275 OA
ENDBRANCH   1   2
BRANCH   1   7
ATOM      7  CA  ASN A   1      18.808   1.150   4.113  0.00  0.00    +0.142 C 
BRANCH   7   8
ATOM      8  N   ASN A   1      17.699   0.295   3.634  0.00  0.00    -0.239 NA
ATOM      9  H   ASN A   1      17.122  -0.218   4.331  0.00  0.00    +0.142 HD
ENDBRANCH   7   8
BRANCH   7  10
ATOM     10  C   ASN A   1      20.123   0.338   4.333  0.00  0.00    +0.225 C 
ATOM     11  O   ASN A   1      21.095   0.880   4.948  0.00  0.00    -0.287 OA
ENDBRANCH   7  10
ENDBRANCH   1   7
TORSDOF 4
REMARK  Name = ../refined-set-2016/3s75/3s75_pocket.pdb
REMARK  144 active torsions:
REMARK  status: ('A' for Active; 'I' for Inactive)
REMARK    1  A    between atoms: _1  and  _3
REMARK    2  A    between atoms: _3  and  _4
REMARK    3  A    between atoms: _3  and  _6
REMARK    4  A    between atoms: _6  and  _7
REMARK    5  A    between atoms: _17  and  _19
REMARK    6  A    between atoms: _19  and  _20
REMARK    7  A    between atoms: _19  and  _22
REMARK    8  A    between atoms: _22  and  _23
REMARK    9  A    between atoms: _28  and  _29
REMARK   10  A    between atoms: _31  and  _33
REMARK   11  A    between atoms: _33  and  _34
REMARK   12  A    between atoms: _33  and  _36
REMARK   13  A    between atoms: _36  and  _37
REMARK   14  A    between atoms: _40  and  _41
REMARK   15  A    between atoms: _46  and  _48
REMARK   16  A    between atoms: _48  and  _49
REMARK   17  A    between atoms: _48  and  _51
REMARK   18  A    between atoms: _51  and  _52
REMARK   19  A    between atoms: _57  and  _59
REMARK   20  A    between atoms: _59  and  _60
REMARK   21  A    between atoms: _63  and  _65
REMARK   22  A    between atoms: _65  and  _66
REMARK   23  A    between atoms: _65  and  _68
REMARK   24  A    between atoms: _68  and  _69
REMARK   25  A    between atoms: _74  and  _76
REMARK   26  A    between atoms: _76  and  _77
REMARK   27  A    between atoms: _76  and  _79
REMARK   28  A    between atoms: _79  and  _80
REMARK   29  A    between atoms: _83  and  _85
REMARK   30  A    between atoms: _85  and  _86
REMARK   31  A    between atoms: _85  and  _88
REMARK   32  A    between atoms: _88  and  _89
REMARK   33  A    between atoms: _89  and  _90
REMARK   34  A    between atoms: _95  and  _97
REMARK   35  A    between atoms: _97  and  _98
REMARK   36  A    between atoms: _97  and  _100
REMARK   37  A    between atoms: _100  and  _101
REMARK   38  A    between atoms: _107  and  _109
REMARK   39  A    between atoms: _120  and  _123
REMARK   40  A    between atoms: _123  and  _124
REMARK   41  A    between atoms: _132  and  _133
REMARK   42  A    between atoms: _141  and  _143
REMARK   43  A    between atoms: _143  and  _144
REMARK   44  A    between atoms: _143  and  _146
REMARK   45  A    between atoms: _146  and  _147
REMARK   46  A    between atoms: _147  and  _148
REMARK   47  A    between atoms: _151  and  _153
REMARK   48  A    between atoms: _153  and  _154
REMARK   49  A    between atoms: _153  and  _156
REMARK   50  A    between atoms: _156  and  _157
REMARK   51  A    between atoms: _162  and  _164
REMARK   52  A    between atoms: _164  and  _165
REMARK   53  A    between atoms: _164  and  _167
REMARK   54  A    between atoms: _167  and  _168
REMARK   55  A    between atoms: _168  and  _169
REMARK   56  A    between atoms: _172  and  _174
REMARK   57  A    between atoms: _174  and  _175
REMARK   58  A    between atoms: _174  and  _177
REMARK   59  A    between atoms: _177  and  _178
REMARK   60  A    between atoms: _181  and  _183
REMARK   61  A    between atoms: _183  and  _184
REMARK   62  A    between atoms: _183  and  _186
REMARK   63  A    between atoms: _186  and  _187
REMARK   64  A    between atoms: _188  and  ZN_408
REMARK   65  A    between atoms: _192  and  _194
REMARK   66  A    between atoms: _194  and  _195
REMARK   67  A    between atoms: _194  and  _197
REMARK   68  A    between atoms: _197  and  _198
REMARK   69  A    between atoms: _201  and  _203
REMARK   70  A    between atoms: _203  and  _204
REMARK   71  A    between atoms: _203  and  _206
REMARK   72  A    between atoms: _209  and  _211
REMARK   73  A    between atoms: _211  and  _212
REMARK   74  A    between atoms: _211  and  _214
REMARK   75  A    between atoms: _214  and  _215
REMARK   76  A    between atoms: _220  and  _222
REMARK   77  A    between atoms: _222  and  _223
REMARK   78  A    between atoms: _222  and  _225
REMARK   79  A    between atoms: _225  and  _226
REMARK   80  A    between atoms: _232  and  _234
REMARK   81  A    between atoms: _234  and  _235
REMARK   82  A    between atoms: _234  and  _237
REMARK   83  A    between atoms: _240  and  _242
REMARK   84  A    between atoms: _242  and  _243
REMARK   85  A    between atoms: _242  and  _245
REMARK   86  A    between atoms: _249  and  _251
REMARK   87  A    between atoms: _251  and  _252
REMARK   88  A    between atoms: _255  and  _257
REMARK   89  A    between atoms: _257  and  _258
REMARK   90  A    between atoms: _257  and  _260
REMARK   91  A    between atoms: _263  and  _265
REMARK   92  A    between atoms: _265  and  _266
REMARK   93  A    between atoms: _265  and  _268
REMARK   94  A    between atoms: _268  and  _269
REMARK   95  A    between atoms: _272  and  _274
REMARK   96  A    between atoms: _274  and  _275
REMARK   97  A    between atoms: _277  and  _279
REMARK   98  A    between atoms: _279  and  _280
REMARK   99  A    between atoms: _282  and  _284
REMARK  100  A    between atoms: _284  and  _285
REMARK  101  A    between atoms: _284  and  _287
REMARK  102  A    between atoms: _287  and  _288
REMARK  103  A    between atoms: _290  and  _292
REMARK  104  A    between atoms: _292  and  _293
REMARK  105  A    between atoms: _292  and  _295
REMARK  106  A    between atoms: _295  and  _296
REMARK  107  A    between atoms: _299  and  _301
REMARK  108  A    between atoms: _301  and  _302
REMARK  109  A    between atoms: _301  and  _304
REMARK  110  A    between atoms: _304  and  _305
REMARK  111  A    between atoms: _308  and  _310
REMARK  112  A    between atoms: _310  and  _311
REMARK  113  A    between atoms: _310  and  _313
REMARK  114  A    between atoms: _313  and  _314
REMARK  115  A    between atoms: _318  and  _319
REMARK  116  A    between atoms: _325  and  _326
REMARK  117  A    between atoms: _331  and  _333
REMARK  118  A    between atoms: _333  and  _334
REMARK  119  A    between atoms: _333  and  _336
REMARK  120  A    between atoms: _336  and  _337
REMARK  121  A    between atoms: _340  and  _342
REMARK  122  A    between atoms: _342  and  _343
REMARK  123  A    between atoms: _342  and  _345
REMARK  124  A    between atoms: _345  and  _346
REMARK  125  A    between atoms: _349  and  _351
REMARK  126  A    between atoms: _351  and  _352
REMARK  127  A    between atoms: _351  and  _354
REMARK  128  A    between atoms: _356  and  _358
REMARK  129  A    between atoms: _358  and  _359
REMARK  130  A    between atoms: _358  and  _361
REMARK  131  A    between atoms: _364  and  _366
REMARK  132  A    between atoms: _366  and  _367
REMARK  133  A    between atoms: _366  and  _369
REMARK  134  A    between atoms: _369  and  _370
REMARK  135  A    between atoms: _380  and  _382
REMARK  136  A    between atoms: _382  and  _383
REMARK  137  A    between atoms: _382  and  _385
REMARK  138  A    between atoms: _385  and  _386
REMARK  139  A    between atoms: _391  and  _393
REMARK  140  A    between atoms: _393  and  _394
REMARK  141  A    between atoms: _393  and  _396
REMARK  142  A    between atoms: _396  and  _397
REMARK  143  A    between atoms: _397  and  _398
REMARK  144  A    between atoms: _398  and  _399
REMARK                            x       y       z     vdW  Elec       q    Type
REMARK                         _______ _______ _______ _____ _____    ______ ____
ROOT
ATOM      1  CA  ALA A   1      16.485  -3.291   7.383  0.00  0.00    +0.133 C 
ATOM      2  CB  ALA A   1      15.826  -2.991   8.840  0.00  0.00    +0.027 C 
ENDROOT
BRANCH   1   3
ATOM      3  N   ALA A   1      17.859  -2.816   7.318  0.00  0.00    -0.239 NA
ATOM      4  H   ALA A   1      18.056  -1.948   6.781  0.00  0.00    +0.142 HD
ENDBRANCH   1   3
BRANCH   1   5
ATOM      5  C   ALA A   1      15.760  -2.575   6.244  0.00  0.00    +0.224 C 
ATOM      6  O   ALA A   1      16.410  -1.937   5.403  0.00  0.00    -0.287 OA
ENDBRANCH   1   5
TORSDOF 2
REMARK  Name = ../refined-set-2016/3s75/3s75_pocket.pdb
REMARK  144 active torsions:
REMARK  status: ('A' for Active; 'I' for Inactive)
REMARK    1  A    between atoms: _1  and  _3
REMARK    2  A    between atoms: _3  and  _4
REMARK    3  A    between atoms: _3  and  _6
REMARK    4  A    between atoms: _6  and  _7
REMARK    5  A    between atoms: _17  and  _19
REMARK    6  A    between atoms: _19  and  _20
REMARK    7  A    between atoms: _19  and  _22
REMARK    8  A    between atoms: _22  and  _23
REMARK    9  A    between atoms: _28  and  _29
REMARK   10  A    between atoms: _31  and  _33
REMARK   11  A    between atoms: _33  and  _34
REMARK   12  A    between atoms: _33  and  _36
REMARK   13  A    between atoms: _36  and  _37
REMARK   14  A    between atoms: _40  and  _41
REMARK   15  A    between atoms: _46  and  _48
REMARK   16  A    between atoms: _48  and  _49
REMARK   17  A    between atoms: _48  and  _51
REMARK   18  A    between atoms: _51  and  _52
REMARK   19  A    between atoms: _57  and  _59
REMARK   20  A    between atoms: _59  and  _60
REMARK   21  A    between atoms: _63  and  _65
REMARK   22  A    between atoms: _65  and  _66
REMARK   23  A    between atoms: _65  and  _68
REMARK   24  A    between atoms: _68  and  _69
REMARK   25  A    between atoms: _74  and  _76
REMARK   26  A    between atoms: _76  and  _77
REMARK   27  A    between atoms: _76  and  _79
REMARK   28  A    between atoms: _79  and  _80
REMARK   29  A    between atoms: _83  and  _85
REMARK   30  A    between atoms: _85  and  _86
REMARK   31  A    between atoms: _85  and  _88
REMARK   32  A    between atoms: _88  and  _89
REMARK   33  A    between atoms: _89  and  _90
REMARK   34  A    between atoms: _95  and  _97
REMARK   35  A    between atoms: _97  and  _98
REMARK   36  A    between atoms: _97  and  _100
REMARK   37  A    between atoms: _100  and  _101
REMARK   38  A    between atoms: _107  and  _109
REMARK   39  A    between atoms: _120  and  _123
REMARK   40  A    between atoms: _123  and  _124
REMARK   41  A    between atoms: _132  and  _133
REMARK   42  A    between atoms: _141  and  _143
REMARK   43  A    between atoms: _143  and  _144
REMARK   44  A    between atoms: _143  and  _146
REMARK   45  A    between atoms: _146  and  _147
REMARK   46  A    between atoms: _147  and  _148
REMARK   47  A    between atoms: _151  and  _153
REMARK   48  A    between atoms: _153  and  _154
REMARK   49  A    between atoms: _153  and  _156
REMARK   50  A    between atoms: _156  and  _157
REMARK   51  A    between atoms: _162  and  _164
REMARK   52  A    between atoms: _164  and  _165
REMARK   53  A    between atoms: _164  and  _167
REMARK   54  A    between atoms: _167  and  _168
REMARK   55  A    between atoms: _168  and  _169
REMARK   56  A    between atoms: _172  and  _174
REMARK   57  A    between atoms: _174  and  _175
REMARK   58  A    between atoms: _174  and  _177
REMARK   59  A    between atoms: _177  and  _178
REMARK   60  A    between atoms: _181  and  _183
REMARK   61  A    between atoms: _183  and  _184
REMARK   62  A    between atoms: _183  and  _186
REMARK   63  A    between atoms: _186  and  _187
REMARK   64  A    between atoms: _188  and  ZN_408
REMARK   65  A    between atoms: _192  and  _194
REMARK   66  A    between atoms: _194  and  _195
REMARK   67  A    between atoms: _194  and  _197
REMARK   68  A    between atoms: _197  and  _198
REMARK   69  A    between atoms: _201  and  _203
REMARK   70  A    between atoms: _203  and  _204
REMARK   71  A    between atoms: _203  and  _206
REMARK   72  A    between atoms: _209  and  _211
REMARK   73  A    between atoms: _211  and  _212
REMARK   74  A    between atoms: _211  and  _214
REMARK   75  A    between atoms: _214  and  _215
REMARK   76  A    between atoms: _220  and  _222
REMARK   77  A    between atoms: _222  and  _223
REMARK   78  A    between atoms: _222  and  _225
REMARK   79  A    between atoms: _225  and  _226
REMARK   80  A    between atoms: _232  and  _234
REMARK   81  A    between atoms: _234  and  _235
REMARK   82  A    between atoms: _234  and  _237
REMARK   83  A    between atoms: _240  and  _242
REMARK   84  A    between atoms: _242  and  _243
REMARK   85  A    between atoms: _242  and  _245
REMARK   86  A    between atoms: _249  and  _251
REMARK   87  A    between atoms: _251  and  _252
REMARK   88  A    between atoms: _255  and  _257
REMARK   89  A    between atoms: _257  and  _258
REMARK   90  A    between atoms: _257  and  _260
REMARK   91  A    between atoms: _263  and  _265
REMARK   92  A    between atoms: _265  and  _266
REMARK   93  A    between atoms: _265  and  _268
REMARK   94  A    between atoms: _268  and  _269
REMARK   95  A    between atoms: _272  and  _274
REMARK   96  A    between atoms: _274  and  _275
REMARK   97  A    between atoms: _277  and  _279
REMARK   98  A    between atoms: _279  and  _280
REMARK   99  A    between atoms: _282  and  _284
REMARK  100  A    between atoms: _284  and  _285
REMARK  101  A    between atoms: _284  and  _287
REMARK  102  A    between atoms: _287  and  _288
REMARK  103  A    between atoms: _290  and  _292
REMARK  104  A    between atoms: _292  and  _293
REMARK  105  A    between atoms: _292  and  _295
REMARK  106  A    between atoms: _295  and  _296
REMARK  107  A    between atoms: _299  and  _301
REMARK  108  A    between atoms: _301  and  _302
REMARK  109  A    between atoms: _301  and  _304
REMARK  110  A    between atoms: _304  and  _305
REMARK  111  A    between atoms: _308  and  _310
REMARK  112  A    between atoms: _310  and  _311
REMARK  113  A    between atoms: _310  and  _313
REMARK  114  A    between atoms: _313  and  _314
REMARK  115  A    between atoms: _318  and  _319
REMARK  116  A    between atoms: _325  and  _326
REMARK  117  A    between atoms: _331  and  _333
REMARK  118  A    between atoms: _333  and  _334
REMARK  119  A    between atoms: _333  and  _336
REMARK  120  A    between atoms: _336  and  _337
REMARK  121  A    between atoms: _340  and  _342
REMARK  122  A    between atoms: _342  and  _343
REMARK  123  A    between atoms: _342  and  _345
REMARK  124  A    between atoms: _345  and  _346
REMARK  125  A    between atoms: _349  and  _351
REMARK  126  A    between atoms: _351  and  _352
REMARK  127  A    between atoms: _351  and  _354
REMARK  128  A    between atoms: _356  and  _358
REMARK  129  A    between atoms: _358  and  _359
REMARK  130  A    between atoms: _358  and  _361
REMARK  131  A    between atoms: _364  and  _366
REMARK  132  A    between atoms: _366  and  _367
REMARK  133  A    between atoms: _366  and  _369
REMARK  134  A    between atoms: _369  and  _370
REMARK  135  A    between atoms: _380  and  _382
REMARK  136  A    between atoms: _382  and  _383
REMARK  137  A    between atoms: _382  and  _385
REMARK  138  A    between atoms: _385  and  _386
REMARK  139  A    between atoms: _391  and  _393
REMARK  140  A    between atoms: _393  and  _394
REMARK  141  A    between atoms: _393  and  _396
REMARK  142  A    between atoms: _396  and  _397
REMARK  143  A    between atoms: _397  and  _398
REMARK  144  A    between atoms: _398  and  _399
REMARK                            x       y       z     vdW  Elec       q    Type
REMARK                         _______ _______ _______ _____ _____    ______ ____
ROOT
ATOM      1  CB  ASN A   1      12.648   2.583   6.908  0.00  0.00    +0.110 C 
ENDROOT
BRANCH   1   2
ATOM      2  CG  ASN A   1      13.660   2.386   7.972  0.00  0.00    +0.221 C 
ATOM      3  OD1 ASN A   1      13.856   1.263   8.436  0.00  0.00    -0.275 OA
ATOM      4  ND2 ASN A   1      14.391   3.450   8.293  0.00  0.00    -0.329 N 
ATOM      5 HD21 ASN A   1      15.176   3.357   8.969  0.00  0.00    +0.145 HD
ATOM      6 HD22 ASN A   1      14.178   4.375   7.868  0.00  0.00    +0.145 HD
ENDBRANCH   1   2
BRANCH   1   7
ATOM      7  CA  ASN A   1      11.829   1.287   6.609  0.00  0.00    +0.142 C 
BRANCH   7   8
ATOM      8  N   ASN A   1      12.677   0.378   5.864  0.00  0.00    -0.239 NA
ATOM      9  H   ASN A   1      13.205   0.726   5.038  0.00  0.00    +0.142 HD
ENDBRANCH   7   8
BRANCH   7  10
ATOM     10  C   ASN A   1      10.633   1.677   5.766  0.00  0.00    +0.225 C 
ATOM     11  O   ASN A   1      10.832   2.122   4.595  0.00  0.00    -0.287 OA
ENDBRANCH   7  10
ENDBRANCH   1   7
TORSDOF 4
REMARK  Name = ../refined-set-2016/3s75/3s75_pocket.pdb
REMARK  144 active torsions:
REMARK  status: ('A' for Active; 'I' for Inactive)
REMARK    1  A    between atoms: _1  and  _3
REMARK    2  A    between atoms: _3  and  _4
REMARK    3  A    between atoms: _3  and  _6
REMARK    4  A    between atoms: _6  and  _7
REMARK    5  A    between atoms: _17  and  _19
REMARK    6  A    between atoms: _19  and  _20
REMARK    7  A    between atoms: _19  and  _22
REMARK    8  A    between atoms: _22  and  _23
REMARK    9  A    between atoms: _28  and  _29
REMARK   10  A    between atoms: _31  and  _33
REMARK   11  A    between atoms: _33  and  _34
REMARK   12  A    between atoms: _33  and  _36
REMARK   13  A    between atoms: _36  and  _37
REMARK   14  A    between atoms: _40  and  _41
REMARK   15  A    between atoms: _46  and  _48
REMARK   16  A    between atoms: _48  and  _49
REMARK   17  A    between atoms: _48  and  _51
REMARK   18  A    between atoms: _51  and  _52
REMARK   19  A    between atoms: _57  and  _59
REMARK   20  A    between atoms: _59  and  _60
REMARK   21  A    between atoms: _63  and  _65
REMARK   22  A    between atoms: _65  and  _66
REMARK   23  A    between atoms: _65  and  _68
REMARK   24  A    between atoms: _68  and  _69
REMARK   25  A    between atoms: _74  and  _76
REMARK   26  A    between atoms: _76  and  _77
REMARK   27  A    between atoms: _76  and  _79
REMARK   28  A    between atoms: _79  and  _80
REMARK   29  A    between atoms: _83  and  _85
REMARK   30  A    between atoms: _85  and  _86
REMARK   31  A    between atoms: _85  and  _88
REMARK   32  A    between atoms: _88  and  _89
REMARK   33  A    between atoms: _89  and  _90
REMARK   34  A    between atoms: _95  and  _97
REMARK   35  A    between atoms: _97  and  _98
REMARK   36  A    between atoms: _97  and  _100
REMARK   37  A    between atoms: _100  and  _101
REMARK   38  A    between atoms: _107  and  _109
REMARK   39  A    between atoms: _120  and  _123
REMARK   40  A    between atoms: _123  and  _124
REMARK   41  A    between atoms: _132  and  _133
REMARK   42  A    between atoms: _141  and  _143
REMARK   43  A    between atoms: _143  and  _144
REMARK   44  A    between atoms: _143  and  _146
REMARK   45  A    between atoms: _146  and  _147
REMARK   46  A    between atoms: _147  and  _148
REMARK   47  A    between atoms: _151  and  _153
REMARK   48  A    between atoms: _153  and  _154
REMARK   49  A    between atoms: _153  and  _156
REMARK   50  A    between atoms: _156  and  _157
REMARK   51  A    between atoms: _162  and  _164
REMARK   52  A    between atoms: _164  and  _165
REMARK   53  A    between atoms: _164  and  _167
REMARK   54  A    between atoms: _167  and  _168
REMARK   55  A    between atoms: _168  and  _169
REMARK   56  A    between atoms: _172  and  _174
REMARK   57  A    between atoms: _174  and  _175
REMARK   58  A    between atoms: _174  and  _177
REMARK   59  A    between atoms: _177  and  _178
REMARK   60  A    between atoms: _181  and  _183
REMARK   61  A    between atoms: _183  and  _184
REMARK   62  A    between atoms: _183  and  _186
REMARK   63  A    between atoms: _186  and  _187
REMARK   64  A    between atoms: _188  and  ZN_408
REMARK   65  A    between atoms: _192  and  _194
REMARK   66  A    between atoms: _194  and  _195
REMARK   67  A    between atoms: _194  and  _197
REMARK   68  A    between atoms: _197  and  _198
REMARK   69  A    between atoms: _201  and  _203
REMARK   70  A    between atoms: _203  and  _204
REMARK   71  A    between atoms: _203  and  _206
REMARK   72  A    between atoms: _209  and  _211
REMARK   73  A    between atoms: _211  and  _212
REMARK   74  A    between atoms: _211  and  _214
REMARK   75  A    between atoms: _214  and  _215
REMARK   76  A    between atoms: _220  and  _222
REMARK   77  A    between atoms: _222  and  _223
REMARK   78  A    between atoms: _222  and  _225
REMARK   79  A    between atoms: _225  and  _226
REMARK   80  A    between atoms: _232  and  _234
REMARK   81  A    between atoms: _234  and  _235
REMARK   82  A    between atoms: _234  and  _237
REMARK   83  A    between atoms: _240  and  _242
REMARK   84  A    between atoms: _242  and  _243
REMARK   85  A    between atoms: _242  and  _245
REMARK   86  A    between atoms: _249  and  _251
REMARK   87  A    between atoms: _251  and  _252
REMARK   88  A    between atoms: _255  and  _257
REMARK   89  A    between atoms: _257  and  _258
REMARK   90  A    between atoms: _257  and  _260
REMARK   91  A    between atoms: _263  and  _265
REMARK   92  A    between atoms: _265  and  _266
REMARK   93  A    between atoms: _265  and  _268
REMARK   94  A    between atoms: _268  and  _269
REMARK   95  A    between atoms: _272  and  _274
REMARK   96  A    between atoms: _274  and  _275
REMARK   97  A    between atoms: _277  and  _279
REMARK   98  A    between atoms: _279  and  _280
REMARK   99  A    between atoms: _282  and  _284
REMARK  100  A    between atoms: _284  and  _285
REMARK  101  A    between atoms: _284  and  _287
REMARK  102  A    between atoms: _287  and  _288
REMARK  103  A    between atoms: _290  and  _292
REMARK  104  A    between atoms: _292  and  _293
REMARK  105  A    between atoms: _292  and  _295
REMARK  106  A    between atoms: _295  and  _296
REMARK  107  A    between atoms: _299  and  _301
REMARK  108  A    between atoms: _301  and  _302
REMARK  109  A    between atoms: _301  and  _304
REMARK  110  A    between atoms: _304  and  _305
REMARK  111  A    between atoms: _308  and  _310
REMARK  112  A    between atoms: _310  and  _311
REMARK  113  A    between atoms: _310  and  _313
REMARK  114  A    between atoms: _313  and  _314
REMARK  115  A    between atoms: _318  and  _319
REMARK  116  A    between atoms: _325  and  _326
REMARK  117  A    between atoms: _331  and  _333
REMARK  118  A    between atoms: _333  and  _334
REMARK  119  A    between atoms: _333  and  _336
REMARK  120  A    between atoms: _336  and  _337
REMARK  121  A    between atoms: _340  and  _342
REMARK  122  A    between atoms: _342  and  _343
REMARK  123  A    between atoms: _342  and  _345
REMARK  124  A    between atoms: _345  and  _346
REMARK  125  A    between atoms: _349  and  _351
REMARK  126  A    between atoms: _351  and  _352
REMARK  127  A    between atoms: _351  and  _354
REMARK  128  A    between atoms: _356  and  _358
REMARK  129  A    between atoms: _358  and  _359
REMARK  130  A    between atoms: _358  and  _361
REMARK  131  A    between atoms: _364  and  _366
REMARK  132  A    between atoms: _366  and  _367
REMARK  133  A    between atoms: _366  and  _369
REMARK  134  A    between atoms: _369  and  _370
REMARK  135  A    between atoms: _380  and  _382
REMARK  136  A    between atoms: _382  and  _383
REMARK  137  A    between atoms: _382  and  _385
REMARK  138  A    between atoms: _385  and  _386
REMARK  139  A    between atoms: _391  and  _393
REMARK  140  A    between atoms: _393  and  _394
REMARK  141  A    between atoms: _393  and  _396
REMARK  142  A    between atoms: _396  and  _397
REMARK  143  A    between atoms: _397  and  _398
REMARK  144  A    between atoms: _398  and  _399
REMARK                            x       y       z     vdW  Elec       q    Type
REMARK                         _______ _______ _______ _____ _____    ______ ____
ROOT
ATOM      1  C   UNK A   4      10.831  -1.481  10.324  0.00  0.00    +0.000 C 
ATOM      2  C   UNK A   4      10.770  -2.754  11.163  0.00  0.00    +0.000 C 
ATOM      3  O   UNK A   4      10.135  -2.773  12.209  0.00  0.00    +0.000 OA
ATOM      4  N   VAL A   5      11.430  -3.810  10.701  0.00  0.00    +0.000 N 
ATOM      5  CA  VAL A   5      11.483  -5.078  11.415  0.00  0.00    +0.000 C 
ATOM      6  C   VAL A   5      12.919  -5.499  11.595  0.00  0.00    +0.000 C 
ATOM      7  N   UNK A   6      13.066  -6.426  12.551  0.00  0.00    +0.000 N 
ATOM      8  H   UNK A   6      12.286  -6.581  13.222  0.00  0.00    +0.000 HD
ATOM      9  C   UNK A   6      14.277  -7.226  12.687  0.00  0.00    +0.000 C 
ATOM     10  C   UNK A   6      14.915  -6.963  14.049  0.00  0.00    +0.000 C 
ATOM     11  C   UNK A   6      15.171  -5.494  14.313  0.00  0.00    +0.000 A 
ATOM     12  C   UNK A   6      14.387  -4.497  14.772  0.00  0.00    +0.000 A 
ATOM     13  N   UNK A   6      15.139  -3.319  14.751  0.00  0.00    +0.000 N 
ATOM     14 ZN   UNK A   6      14.356  -1.542  15.358  0.00  0.00    +0.000 Zn
ATOM     15  N   UNK A   4      13.668  -0.759  13.637  0.00  0.00    +0.000 N 
ATOM     16  C   UNK A   4      13.156   0.469  13.465  0.00  0.00    +0.000 A 
ATOM     17  N   UNK A   4      12.645   0.549  12.230  0.00  0.00    +0.000 NA
ATOM     18  C   UNK A   4      12.855  -0.661  11.578  0.00  0.00    +0.000 A 
ATOM     19  C   UNK A   4      13.460  -1.486  12.488  0.00  0.00    +0.000 A 
ATOM     20  C   UNK A   6      16.384  -3.629  14.385  0.00  0.00    +0.000 A 
ATOM     21  N   UNK A   6      16.419  -4.944  14.040  0.00  0.00    +0.000 NA
ATOM     22  O   VAL A   5      13.828  -5.061  10.902  0.00  0.00    +0.000 OA
ATOM     23  H   VAL A   5      11.929  -3.728   9.792  0.00  0.00    +0.000 HD
ATOM     24  C   UNK A   4      12.277  -0.967  10.210  0.00  0.00    +0.000 C 
ENDROOT
BRANCH  14  25
ATOM     25  N   UNK A   6      12.875  -2.248  16.600  0.00  0.00    +0.000 N 
ATOM     26  C   UNK A   6      13.157  -3.174  17.494  0.00  0.00    +0.000 A 
ATOM     27  N   UNK A   6      12.039  -3.542  18.119  0.00  0.00    +0.000 NA
ATOM     28  C   UNK A   6      10.966  -2.856  17.554  0.00  0.00    +0.000 A 
ATOM     29  C   UNK A   6      11.494  -2.034  16.595  0.00  0.00    +0.000 A 
BRANCH  29  30
ATOM     30  C   UNK A   6      10.800  -1.059  15.700  0.00  0.00    +0.000 C 
BRANCH  30  31
ATOM     31  C   UNK A   6       9.292  -1.366  15.628  0.00  0.00    +0.000 C 
BRANCH  31  32
ATOM     32  C   UNK A   6       8.664  -0.241  14.882  0.00  0.00    +0.000 C 
ATOM     33  N   UNK A   4       7.676   0.365  15.530  0.00  0.00    +0.000 N 
ATOM     34  H   UNK A   4       7.360  -0.065  16.423  0.00  0.00    +0.000 HD
ATOM     35  O   UNK A   6       9.065   0.166  13.768  0.00  0.00    +0.000 OA
BRANCH  33  36
ATOM     36  C   UNK A   4       6.973   1.619  15.086  0.00  0.00    +0.000 C 
BRANCH  36  37
ATOM     37  C   UNK A   4       7.599   2.738  15.861  0.00  0.00    +0.000 C 
ATOM     38  O   UNK A   4       7.492   2.811  17.106  0.00  0.00    +0.000 OA
ATOM     39  N   VAL A   5       8.351   3.568  15.134  0.00  0.00    +0.000 N 
ATOM     40  H   VAL A   5       8.310   3.505  14.097  0.00  0.00    +0.000 HD
BRANCH  39  41
ATOM     41  CA  VAL A   5       9.241   4.576  15.755  0.00  0.00    +0.000 C 
BRANCH  41  42
ATOM     42  C   VAL A   5       8.532   5.942  15.762  0.00  0.00    +0.000 C 
ATOM     43  N   UNK A   6       8.453   6.532  16.965  0.00  0.00    +0.000 N 
ATOM     44  H   UNK A   6       8.839   6.065  17.810  0.00  0.00    +0.000 HD
ATOM     45  O   VAL A   5       8.079   6.407  14.679  0.00  0.00    +0.000 OA
BRANCH  43  46
ATOM     46  C   UNK A   6       7.801   7.872  17.067  0.00  0.00    +0.000 C 
BRANCH  46  47
ATOM     47  C   UNK A   6       8.712   8.828  17.819  0.00  0.00    +0.000 C 
ATOM     48  O   UNK A   6       9.396   8.464  18.756  0.00  0.00    +0.000 OA
ENDBRANCH  46  47
BRANCH  46  49
ATOM     49  C   UNK A   6       6.479   7.717  17.941  0.00  0.00    +0.000 C 
BRANCH  49  50
ATOM     50  C   UNK A   6       5.575   6.580  17.525  0.00  0.00    +0.000 A 
ATOM     51  N   UNK A   6       5.887   5.263  17.836  0.00  0.00    +0.000 NA
ATOM     52  C   UNK A   6       4.895   4.472  17.375  0.00  0.00    +0.000 A 
ATOM     53  N   UNK A   6       3.981   5.240  16.760  0.00  0.00    +0.000 NA
ATOM     54  C   UNK A   6       4.372   6.564  16.873  0.00  0.00    +0.000 A 
ENDBRANCH  49  50
ENDBRANCH  46  49
ENDBRANCH  43  46
ENDBRANCH  41  42
BRANCH  41  55
ATOM     55  CB  VAL A   5      10.555   4.650  14.939  0.00  0.00    +0.000 C 
ATOM     56  CG2 VAL A   5      11.507   5.751  15.600  0.00  0.00    +0.000 C 
ATOM     57  CG1 VAL A   5      11.274   3.279  14.847  0.00  0.00    +0.000 C 
ENDBRANCH  41  55
ENDBRANCH  39  41
ENDBRANCH  36  37
BRANCH  36  58
ATOM     58  C   UNK A   4       5.463   1.501  15.296  0.00  0.00    +0.000 C 
BRANCH  58  59
ATOM     59  C   UNK A   4       4.850   0.388  14.399  0.00  0.00    +0.000 C 
ATOM     60  C   UNK A   4       3.977  -0.584  15.286  0.00  0.00    +0.000 C 
ATOM     61  C   UNK A   4       4.042   1.030  13.285  0.00  0.00    +0.000 C 
ENDBRANCH  58  59
ENDBRANCH  36  58
ENDBRANCH  33  36
ENDBRANCH  31  32
BRANCH  31  62
ATOM     62  N   UNK A   6       9.076  -2.602  14.871  0.00  0.00    +0.000 N 
ATOM     63  C   LEU A   2       8.464  -3.678  15.364  0.00  0.00    +0.000 C 
ATOM     64  O   LEU A   2       8.076  -3.732  16.507  0.00  0.00    +0.000 OA
ATOM     65  H   UNK A   6       9.421  -2.642  13.891  0.00  0.00    +0.000 HD
BRANCH  63  66
ATOM     66  CA  LEU A   2       8.306  -4.800  14.380  0.00  0.00    +0.000 C 
BRANCH  66  67
ATOM     67  N   LEU A   2       8.640  -6.108  15.019  0.00  0.00    +0.000 N 
ATOM     68  H   LEU A   2       7.884  -6.630  15.508  0.00  0.00    +0.000 HD
ATOM     69  C   GLU A   1       9.862  -6.636  14.991  0.00  0.00    +0.000 C 
ATOM     70  O   GLU A   1      10.780  -6.228  14.262  0.00  0.00    +0.000 OA
BRANCH  69  71
ATOM     71  CA  GLU A   1       9.998  -7.935  15.841  0.00  0.00    +0.000 C 
BRANCH  71  72
ATOM     72  N   GLU A   1      10.568  -8.949  14.933  0.00  0.00    +0.000 NA
ATOM     73  H   GLU A   1      11.235  -8.678  14.182  0.00  0.00    +0.000 HD
ENDBRANCH  71  72
BRANCH  71  74
ATOM     74  CB  GLU A   1      10.947  -7.627  17.019  0.00  0.00    +0.000 C 
BRANCH  74  75
ATOM     75  CG  GLU A   1      10.411  -6.667  18.042  0.00  0.00    +0.000 C 
BRANCH  75  76
ATOM     76  CD  GLU A   1      11.328  -6.603  19.211  0.00  0.00    +0.000 C 
ATOM     77  OE2 GLU A   1      11.395  -5.495  19.849  0.00  0.00    +0.000 OA
ATOM     78  OE1 GLU A   1      12.012  -7.594  19.545  0.00  0.00    +0.000 OA
ENDBRANCH  75  76
ENDBRANCH  74  75
ENDBRANCH  71  74
ENDBRANCH  69  71
ENDBRANCH  66  67
BRANCH  66  79
ATOM     79  CB  LEU A   2       6.780  -4.926  14.064  0.00  0.00    +0.000 C 
BRANCH  79  80
ATOM     80  CG  LEU A   2       6.031  -3.658  13.659  0.00  0.00    +0.000 C 
ATOM     81  CD2 LEU A   2       4.531  -3.994  13.365  0.00  0.00    +0.000 C 
ATOM     82  CD1 LEU A   2       6.613  -2.997  12.394  0.00  0.00    +0.000 C 
ENDBRANCH  79  80
ENDBRANCH  66  79
ENDBRANCH  63  66
ENDBRANCH  31  62
ENDBRANCH  30  31
ENDBRANCH  29  30
ENDBRANCH  14  25
BRANCH   1  84
ATOM     83  C   UNK A   3       9.392   0.524  10.255  0.00  0.00    +0.000 C 
ATOM     84  N   UNK A   4       9.954  -0.468  10.942  0.00  0.00    +0.000 N 
ATOM     85  H   UNK A   4       9.766  -0.532  11.963  0.00  0.00    +0.000 HD
ATOM     86  O   UNK A   3       9.608   0.687   9.024  0.00  0.00    +0.000 OA
BRANCH  83  87
ATOM     87  C   UNK A   3       8.476   1.394  10.975  0.00  0.00    +0.000 C 
BRANCH  87  90
ATOM     88  C   LEU A   2       8.580   3.787  11.061  0.00  0.00    +0.000 C 
ATOM     89  O   LEU A   2       8.566   3.846  12.281  0.00  0.00    +0.000 OA
ATOM     90  N   UNK A   3       8.335   2.697  10.363  0.00  0.00    +0.000 N 
ATOM     91  H   UNK A   3       8.039   2.774   9.369  0.00  0.00    +0.000 HD
BRANCH  88  92
ATOM     92  CA  LEU A   2       8.833   5.016  10.257  0.00  0.00    +0.000 C 
BRANCH  92  94
ATOM     93  C   GLU A   1       8.435   7.408  10.601  0.00  0.00    +0.000 C 
ATOM     94  N   LEU A   2       8.560   6.217  11.175  0.00  0.00    +0.000 N 
ATOM     95  H   LEU A   2       8.476   6.102  12.205  0.00  0.00    +0.000 HD
ATOM     96  O   GLU A   1       8.492   7.570   9.371  0.00  0.00    +0.000 OA
BRANCH  93  97
ATOM     97  CA  GLU A   1       8.198   8.589  11.519  0.00  0.00    +0.000 C 
BRANCH  97  98
ATOM     98  CB  GLU A   1       9.535   9.253  11.993  0.00  0.00    +0.000 C 
ATOM     99  CG2 GLU A   1      10.211   8.459  13.144  0.00  0.00    +0.000 C 
BRANCH  98 100
ATOM    100  CG1 GLU A   1      10.551   9.394  10.849  0.00  0.00    +0.000 C 
ATOM    101  CD1 GLU A   1      11.843  10.223  11.305  0.00  0.00    +0.000 C 
ENDBRANCH  98 100
ENDBRANCH  97  98
BRANCH  97 102
ATOM    102  N   GLU A   1       7.264   8.273  12.624  0.00  0.00    +0.000 NA
ATOM    103  H   GLU A   1       7.612   7.715  13.430  0.00  0.00    +0.000 HD
ENDBRANCH  97 102
ENDBRANCH  93  97
ENDBRANCH  92  94
BRANCH  92 104
ATOM    104  CB  LEU A   2      10.315   4.968   9.684  0.00  0.00    +0.000 C 
BRANCH 104 105
ATOM    105  CG  LEU A   2      11.367   5.155  10.828  0.00  0.00    +0.000 C 
BRANCH 105 106
ATOM    106  CD  LEU A   2      12.059   3.909  11.230  0.00  0.00    +0.000 C 
ATOM    107  NE2 LEU A   2      13.267   4.101  11.742  0.00  0.00    +0.000 N 
ATOM    108 HE21 LEU A   2      13.865   3.285  11.983  0.00  0.00    +0.000 HD
ATOM    109 HE22 LEU A   2      13.616   5.067  11.902  0.00  0.00    +0.000 HD
ATOM    110  OE1 LEU A   2      11.582   2.797  11.014  0.00  0.00    +0.000 OA
ENDBRANCH 105 106
ENDBRANCH 104 105
ENDBRANCH  92 104
ENDBRANCH  88  92
ENDBRANCH  87  90
BRANCH  87 111
ATOM    111  C   UNK A   3       7.095   0.653  11.242  0.00  0.00    +0.000 C 
BRANCH 111 112
ATOM    112  C   UNK A   3       6.346   0.153   9.998  0.00  0.00    +0.000 A 
ATOM    113  C   UNK A   3       5.208   0.896   9.544  0.00  0.00    +0.000 A 
ATOM    114  C   UNK A   3       4.492   0.460   8.452  0.00  0.00    +0.000 A 
ATOM    115  C   UNK A   3       4.889  -0.776   7.779  0.00  0.00    +0.000 A 
ATOM    116  C   UNK A   3       6.043  -1.481   8.226  0.00  0.00    +0.000 A 
ATOM    117  C   UNK A   3       6.736  -1.002   9.338  0.00  0.00    +0.000 A 
ENDBRANCH 111 112
ENDBRANCH  87 111
ENDBRANCH  83  87
ENDBRANCH   1  84
BRANCH   9 118
ATOM    118  C   UNK A   6      13.864  -8.661  12.629  0.00  0.00    +0.000 C 
ATOM    119  O   UNK A   6      12.781  -9.034  13.128  0.00  0.00    +0.000 OA
ENDBRANCH   9 118
BRANCH   5 120
ATOM    120  CB  VAL A   5      10.754  -6.211  10.595  0.00  0.00    +0.000 C 
BRANCH 120 121
ATOM    121  CG  VAL A   5       9.296  -5.921  10.251  0.00  0.00    +0.000 A 
ATOM    122  CD2 VAL A   5       8.260  -6.553  10.935  0.00  0.00    +0.000 A 
ATOM    123  CE2 VAL A   5       6.903  -6.349  10.595  0.00  0.00    +0.000 A 
ATOM    124  CZ  VAL A   5       6.633  -5.417   9.581  0.00  0.00    +0.000 A 
ATOM    125  CE1 VAL A   5       7.646  -4.814   8.848  0.00  0.00    +0.000 A 
ATOM    126  CD1 VAL A   5       8.994  -5.082   9.206  0.00  0.00    +0.000 A 
ENDBRANCH 120 121
ENDBRANCH   5 120
TORSDOF 42
REMARK  Name = ../refined-set-2016/3s75/3s75_pocket.pdb
REMARK  144 active torsions:
REMARK  status: ('A' for Active; 'I' for Inactive)
REMARK    1  A    between atoms: _1  and  _3
REMARK    2  A    between atoms: _3  and  _4
REMARK    3  A    between atoms: _3  and  _6
REMARK    4  A    between atoms: _6  and  _7
REMARK    5  A    between atoms: _17  and  _19
REMARK    6  A    between atoms: _19  and  _20
REMARK    7  A    between atoms: _19  and  _22
REMARK    8  A    between atoms: _22  and  _23
REMARK    9  A    between atoms: _28  and  _29
REMARK   10  A    between atoms: _31  and  _33
REMARK   11  A    between atoms: _33  and  _34
REMARK   12  A    between atoms: _33  and  _36
REMARK   13  A    between atoms: _36  and  _37
REMARK   14  A    between atoms: _40  and  _41
REMARK   15  A    between atoms: _46  and  _48
REMARK   16  A    between atoms: _48  and  _49
REMARK   17  A    between atoms: _48  and  _51
REMARK   18  A    between atoms: _51  and  _52
REMARK   19  A    between atoms: _57  and  _59
REMARK   20  A    between atoms: _59  and  _60
REMARK   21  A    between atoms: _63  and  _65
REMARK   22  A    between atoms: _65  and  _66
REMARK   23  A    between atoms: _65  and  _68
REMARK   24  A    between atoms: _68  and  _69
REMARK   25  A    between atoms: _74  and  _76
REMARK   26  A    between atoms: _76  and  _77
REMARK   27  A    between atoms: _76  and  _79
REMARK   28  A    between atoms: _79  and  _80
REMARK   29  A    between atoms: _83  and  _85
REMARK   30  A    between atoms: _85  and  _86
REMARK   31  A    between atoms: _85  and  _88
REMARK   32  A    between atoms: _88  and  _89
REMARK   33  A    between atoms: _89  and  _90
REMARK   34  A    between atoms: _95  and  _97
REMARK   35  A    between atoms: _97  and  _98
REMARK   36  A    between atoms: _97  and  _100
REMARK   37  A    between atoms: _100  and  _101
REMARK   38  A    between atoms: _107  and  _109
REMARK   39  A    between atoms: _120  and  _123
REMARK   40  A    between atoms: _123  and  _124
REMARK   41  A    between atoms: _132  and  _133
REMARK   42  A    between atoms: _141  and  _143
REMARK   43  A    between atoms: _143  and  _144
REMARK   44  A    between atoms: _143  and  _146
REMARK   45  A    between atoms: _146  and  _147
REMARK   46  A    between atoms: _147  and  _148
REMARK   47  A    between atoms: _151  and  _153
REMARK   48  A    between atoms: _153  and  _154
REMARK   49  A    between atoms: _153  and  _156
REMARK   50  A    between atoms: _156  and  _157
REMARK   51  A    between atoms: _162  and  _164
REMARK   52  A    between atoms: _164  and  _165
REMARK   53  A    between atoms: _164  and  _167
REMARK   54  A    between atoms: _167  and  _168
REMARK   55  A    between atoms: _168  and  _169
REMARK   56  A    between atoms: _172  and  _174
REMARK   57  A    between atoms: _174  and  _175
REMARK   58  A    between atoms: _174  and  _177
REMARK   59  A    between atoms: _177  and  _178
REMARK   60  A    between atoms: _181  and  _183
REMARK   61  A    between atoms: _183  and  _184
REMARK   62  A    between atoms: _183  and  _186
REMARK   63  A    between atoms: _186  and  _187
REMARK   64  A    between atoms: _188  and  ZN_408
REMARK   65  A    between atoms: _192  and  _194
REMARK   66  A    between atoms: _194  and  _195
REMARK   67  A    between atoms: _194  and  _197
REMARK   68  A    between atoms: _197  and  _198
REMARK   69  A    between atoms: _201  and  _203
REMARK   70  A    between atoms: _203  and  _204
REMARK   71  A    between atoms: _203  and  _206
REMARK   72  A    between atoms: _209  and  _211
REMARK   73  A    between atoms: _211  and  _212
REMARK   74  A    between atoms: _211  and  _214
REMARK   75  A    between atoms: _214  and  _215
REMARK   76  A    between atoms: _220  and  _222
REMARK   77  A    between atoms: _222  and  _223
REMARK   78  A    between atoms: _222  and  _225
REMARK   79  A    between atoms: _225  and  _226
REMARK   80  A    between atoms: _232  and  _234
REMARK   81  A    between atoms: _234  and  _235
REMARK   82  A    between atoms: _234  and  _237
REMARK   83  A    between atoms: _240  and  _242
REMARK   84  A    between atoms: _242  and  _243
REMARK   85  A    between atoms: _242  and  _245
REMARK   86  A    between atoms: _249  and  _251
REMARK   87  A    between atoms: _251  and  _252
REMARK   88  A    between atoms: _255  and  _257
REMARK   89  A    between atoms: _257  and  _258
REMARK   90  A    between atoms: _257  and  _260
REMARK   91  A    between atoms: _263  and  _265
REMARK   92  A    between atoms: _265  and  _266
REMARK   93  A    between atoms: _265  and  _268
REMARK   94  A    between atoms: _268  and  _269
REMARK   95  A    between atoms: _272  and  _274
REMARK   96  A    between atoms: _274  and  _275
REMARK   97  A    between atoms: _277  and  _279
REMARK   98  A    between atoms: _279  and  _280
REMARK   99  A    between atoms: _282  and  _284
REMARK  100  A    between atoms: _284  and  _285
REMARK  101  A    between atoms: _284  and  _287
REMARK  102  A    between atoms: _287  and  _288
REMARK  103  A    between atoms: _290  and  _292
REMARK  104  A    between atoms: _292  and  _293
REMARK  105  A    between atoms: _292  and  _295
REMARK  106  A    between atoms: _295  and  _296
REMARK  107  A    between atoms: _299  and  _301
REMARK  108  A    between atoms: _301  and  _302
REMARK  109  A    between atoms: _301  and  _304
REMARK  110  A    between atoms: _304  and  _305
REMARK  111  A    between atoms: _308  and  _310
REMARK  112  A    between atoms: _310  and  _311
REMARK  113  A    between atoms: _310  and  _313
REMARK  114  A    between atoms: _313  and  _314
REMARK  115  A    between atoms: _318  and  _319
REMARK  116  A    between atoms: _325  and  _326
REMARK  117  A    between atoms: _331  and  _333
REMARK  118  A    between atoms: _333  and  _334
REMARK  119  A    between atoms: _333  and  _336
REMARK  120  A    between atoms: _336  and  _337
REMARK  121  A    between atoms: _340  and  _342
REMARK  122  A    between atoms: _342  and  _343
REMARK  123  A    between atoms: _342  and  _345
REMARK  124  A    between atoms: _345  and  _346
REMARK  125  A    between atoms: _349  and  _351
REMARK  126  A    between atoms: _351  and  _352
REMARK  127  A    between atoms: _351  and  _354
REMARK  128  A    between atoms: _356  and  _358
REMARK  129  A    between atoms: _358  and  _359
REMARK  130  A    between atoms: _358  and  _361
REMARK  131  A    between atoms: _364  and  _366
REMARK  132  A    between atoms: _366  and  _367
REMARK  133  A    between atoms: _366  and  _369
REMARK  134  A    between atoms: _369  and  _370
REMARK  135  A    between atoms: _380  and  _382
REMARK  136  A    between atoms: _382  and  _383
REMARK  137  A    between atoms: _382  and  _385
REMARK  138  A    between atoms: _385  and  _386
REMARK  139  A    between atoms: _391  and  _393
REMARK  140  A    between atoms: _393  and  _394
REMARK  141  A    between atoms: _393  and  _396
REMARK  142  A    between atoms: _396  and  _397
REMARK  143  A    between atoms: _397  and  _398
REMARK  144  A    between atoms: _398  and  _399
REMARK                            x       y       z     vdW  Elec       q    Type
REMARK                         _______ _______ _______ _____ _____    ______ ____
ROOT
ATOM      1  C   GLU A   1      15.137  -8.280  21.158  0.00  0.00    +0.238 C 
ATOM      2  O   GLU A   1      15.916  -8.872  21.941  0.00  0.00    -0.274 OA
ATOM      3  N   HIS A   2      13.910  -7.841  21.592  0.00  0.00    -0.298 N 
ATOM      4  H   HIS A   2      13.317  -7.235  20.990  0.00  0.00    +0.150 HD
ENDROOT
BRANCH   1   5
ATOM      5  CA  GLU A   1      15.498  -8.170  19.688  0.00  0.00    +0.145 C 
BRANCH   5   6
ATOM      6  N   GLU A   1      14.480  -8.846  18.880  0.00  0.00    -0.238 NA
ATOM      7  H   GLU A   1      13.633  -8.317  18.589  0.00  0.00    +0.142 HD
ENDBRANCH   5   6
BRANCH   5   8
ATOM      8  CB  GLU A   1      15.504  -6.674  19.275  0.00  0.00    +0.038 C 
BRANCH   8   9
ATOM      9  CG  GLU A   1      16.077  -6.619  17.809  0.00  0.00    +0.116 C 
BRANCH   9  10
ATOM     10  CD  GLU A   1      16.653  -5.265  17.518  0.00  0.00    +0.365 C 
ATOM     11  OE2 GLU A   1      16.047  -4.234  17.783  0.00  0.00    -0.246 OA
ATOM     12  OE1 GLU A   1      17.822  -5.291  17.033  0.00  0.00    -0.246 OA
ENDBRANCH   9  10
ENDBRANCH   8   9
ENDBRANCH   5   8
ENDBRANCH   1   5
BRANCH   3  13
ATOM     13  CA  HIS A   2      13.463  -8.243  22.909  0.00  0.00    +0.143 C 
BRANCH  13  14
ATOM     14  C   HIS A   2      13.140  -9.742  22.930  0.00  0.00    +0.227 C 
ATOM     15  O   HIS A   2      12.824 -10.340  21.900  0.00  0.00    -0.286 OA
ENDBRANCH  13  14
BRANCH  13  16
ATOM     16  CB  HIS A   2      12.261  -7.426  23.297  0.00  0.00    +0.075 C 
BRANCH  16  17
ATOM     17  CG  HIS A   2      12.604  -5.982  23.473  0.00  0.00    +0.082 A 
ATOM     18  CD2 HIS A   2      13.071  -5.249  24.521  0.00  0.00    +0.115 A 
ATOM     19  NE2 HIS A   2      13.257  -3.963  24.069  0.00  0.00    -0.221 NA
ATOM     20  CE1 HIS A   2      12.918  -3.893  22.779  0.00  0.00    +0.199 A 
ATOM     21  ND1 HIS A   2      12.514  -5.111  22.379  0.00  0.00    -0.227 NA
ENDBRANCH  16  17
ENDBRANCH  13  16
ENDBRANCH   3  13
TORSDOF 9
REMARK  Name = ../refined-set-2016/3s75/3s75_pocket.pdb
REMARK  144 active torsions:
REMARK  status: ('A' for Active; 'I' for Inactive)
REMARK    1  A    between atoms: _1  and  _3
REMARK    2  A    between atoms: _3  and  _4
REMARK    3  A    between atoms: _3  and  _6
REMARK    4  A    between atoms: _6  and  _7
REMARK    5  A    between atoms: _17  and  _19
REMARK    6  A    between atoms: _19  and  _20
REMARK    7  A    between atoms: _19  and  _22
REMARK    8  A    between atoms: _22  and  _23
REMARK    9  A    between atoms: _28  and  _29
REMARK   10  A    between atoms: _31  and  _33
REMARK   11  A    between atoms: _33  and  _34
REMARK   12  A    between atoms: _33  and  _36
REMARK   13  A    between atoms: _36  and  _37
REMARK   14  A    between atoms: _40  and  _41
REMARK   15  A    between atoms: _46  and  _48
REMARK   16  A    between atoms: _48  and  _49
REMARK   17  A    between atoms: _48  and  _51
REMARK   18  A    between atoms: _51  and  _52
REMARK   19  A    between atoms: _57  and  _59
REMARK   20  A    between atoms: _59  and  _60
REMARK   21  A    between atoms: _63  and  _65
REMARK   22  A    between atoms: _65  and  _66
REMARK   23  A    between atoms: _65  and  _68
REMARK   24  A    between atoms: _68  and  _69
REMARK   25  A    between atoms: _74  and  _76
REMARK   26  A    between atoms: _76  and  _77
REMARK   27  A    between atoms: _76  and  _79
REMARK   28  A    between atoms: _79  and  _80
REMARK   29  A    between atoms: _83  and  _85
REMARK   30  A    between atoms: _85  and  _86
REMARK   31  A    between atoms: _85  and  _88
REMARK   32  A    between atoms: _88  and  _89
REMARK   33  A    between atoms: _89  and  _90
REMARK   34  A    between atoms: _95  and  _97
REMARK   35  A    between atoms: _97  and  _98
REMARK   36  A    between atoms: _97  and  _100
REMARK   37  A    between atoms: _100  and  _101
REMARK   38  A    between atoms: _107  and  _109
REMARK   39  A    between atoms: _120  and  _123
REMARK   40  A    between atoms: _123  and  _124
REMARK   41  A    between atoms: _132  and  _133
REMARK   42  A    between atoms: _141  and  _143
REMARK   43  A    between atoms: _143  and  _144
REMARK   44  A    between atoms: _143  and  _146
REMARK   45  A    between atoms: _146  and  _147
REMARK   46  A    between atoms: _147  and  _148
REMARK   47  A    between atoms: _151  and  _153
REMARK   48  A    between atoms: _153  and  _154
REMARK   49  A    between atoms: _153  and  _156
REMARK   50  A    between atoms: _156  and  _157
REMARK   51  A    between atoms: _162  and  _164
REMARK   52  A    between atoms: _164  and  _165
REMARK   53  A    between atoms: _164  and  _167
REMARK   54  A    between atoms: _167  and  _168
REMARK   55  A    between atoms: _168  and  _169
REMARK   56  A    between atoms: _172  and  _174
REMARK   57  A    between atoms: _174  and  _175
REMARK   58  A    between atoms: _174  and  _177
REMARK   59  A    between atoms: _177  and  _178
REMARK   60  A    between atoms: _181  and  _183
REMARK   61  A    between atoms: _183  and  _184
REMARK   62  A    between atoms: _183  and  _186
REMARK   63  A    between atoms: _186  and  _187
REMARK   64  A    between atoms: _188  and  ZN_408
REMARK   65  A    between atoms: _192  and  _194
REMARK   66  A    between atoms: _194  and  _195
REMARK   67  A    between atoms: _194  and  _197
REMARK   68  A    between atoms: _197  and  _198
REMARK   69  A    between atoms: _201  and  _203
REMARK   70  A    between atoms: _203  and  _204
REMARK   71  A    between atoms: _203  and  _206
REMARK   72  A    between atoms: _209  and  _211
REMARK   73  A    between atoms: _211  and  _212
REMARK   74  A    between atoms: _211  and  _214
REMARK   75  A    between atoms: _214  and  _215
REMARK   76  A    between atoms: _220  and  _222
REMARK   77  A    between atoms: _222  and  _223
REMARK   78  A    between atoms: _222  and  _225
REMARK   79  A    between atoms: _225  and  _226
REMARK   80  A    between atoms: _232  and  _234
REMARK   81  A    between atoms: _234  and  _235
REMARK   82  A    between atoms: _234  and  _237
REMARK   83  A    between atoms: _240  and  _242
REMARK   84  A    between atoms: _242  and  _243
REMARK   85  A    between atoms: _242  and  _245
REMARK   86  A    between atoms: _249  and  _251
REMARK   87  A    between atoms: _251  and  _252
REMARK   88  A    between atoms: _255  and  _257
REMARK   89  A    between atoms: _257  and  _258
REMARK   90  A    between atoms: _257  and  _260
REMARK   91  A    between atoms: _263  and  _265
REMARK   92  A    between atoms: _265  and  _266
REMARK   93  A    between atoms: _265  and  _268
REMARK   94  A    between atoms: _268  and  _269
REMARK   95  A    between atoms: _272  and  _274
REMARK   96  A    between atoms: _274  and  _275
REMARK   97  A    between atoms: _277  and  _279
REMARK   98  A    between atoms: _279  and  _280
REMARK   99  A    between atoms: _282  and  _284
REMARK  100  A    between atoms: _284  and  _285
REMARK  101  A    between atoms: _284  and  _287
REMARK  102  A    between atoms: _287  and  _288
REMARK  103  A    between atoms: _290  and  _292
REMARK  104  A    between atoms: _292  and  _293
REMARK  105  A    between atoms: _292  and  _295
REMARK  106  A    between atoms: _295  and  _296
REMARK  107  A    between atoms: _299  and  _301
REMARK  108  A    between atoms: _301  and  _302
REMARK  109  A    between atoms: _301  and  _304
REMARK  110  A    between atoms: _304  and  _305
REMARK  111  A    between atoms: _308  and  _310
REMARK  112  A    between atoms: _310  and  _311
REMARK  113  A    between atoms: _310  and  _313
REMARK  114  A    between atoms: _313  and  _314
REMARK  115  A    between atoms: _318  and  _319
REMARK  116  A    between atoms: _325  and  _326
REMARK  117  A    between atoms: _331  and  _333
REMARK  118  A    between atoms: _333  and  _334
REMARK  119  A    between atoms: _333  and  _336
REMARK  120  A    between atoms: _336  and  _337
REMARK  121  A    between atoms: _340  and  _342
REMARK  122  A    between atoms: _342  and  _343
REMARK  123  A    between atoms: _342  and  _345
REMARK  124  A    between atoms: _345  and  _346
REMARK  125  A    between atoms: _349  and  _351
REMARK  126  A    between atoms: _351  and  _352
REMARK  127  A    between atoms: _351  and  _354
REMARK  128  A    between atoms: _356  and  _358
REMARK  129  A    between atoms: _358  and  _359
REMARK  130  A    between atoms: _358  and  _361
REMARK  131  A    between atoms: _364  and  _366
REMARK  132  A    between atoms: _366  and  _367
REMARK  133  A    between atoms: _366  and  _369
REMARK  134  A    between atoms: _369  and  _370
REMARK  135  A    between atoms: _380  and  _382
REMARK  136  A    between atoms: _382  and  _383
REMARK  137  A    between atoms: _382  and  _385
REMARK  138  A    between atoms: _385  and  _386
REMARK  139  A    between atoms: _391  and  _393
REMARK  140  A    between atoms: _393  and  _394
REMARK  141  A    between atoms: _393  and  _396
REMARK  142  A    between atoms: _396  and  _397
REMARK  143  A    between atoms: _397  and  _398
REMARK  144  A    between atoms: _398  and  _399
REMARK                            x       y       z     vdW  Elec       q    Type
REMARK                         _______ _______ _______ _____ _____    ______ ____
ROOT
ATOM      1  CB  PHE A   1      13.554  12.714  13.881  0.00  0.00    +0.051 C 
ENDROOT
BRANCH   1   2
ATOM      2  CG  PHE A   1      14.086  11.349  14.197  0.00  0.00    -0.020 A 
ATOM      3  CD2 PHE A   1      13.263  10.364  14.810  0.00  0.00    -0.004 A 
ATOM      4  CE2 PHE A   1      13.756   9.105  15.129  0.00  0.00    -0.000 A 
ATOM      5  CZ  PHE A   1      15.059   8.778  14.865  0.00  0.00    -0.000 A 
ATOM      6  CE1 PHE A   1      15.883   9.708  14.202  0.00  0.00    -0.000 A 
ATOM      7  CD1 PHE A   1      15.431  10.965  13.886  0.00  0.00    -0.004 A 
ENDBRANCH   1   2
BRANCH   1   8
ATOM      8  CA  PHE A   1      13.742  13.738  15.011  0.00  0.00    +0.137 C 
BRANCH   8   9
ATOM      9  N   PHE A   1      13.137  15.016  14.593  0.00  0.00    -0.239 NA
ATOM     10  H   PHE A   1      12.747  15.109  13.633  0.00  0.00    +0.142 HD
ENDBRANCH   8   9
BRANCH   8  11
ATOM     11  C   PHE A   1      15.170  13.824  15.464  0.00  0.00    +0.224 C 
ATOM     12  O   PHE A   1      15.547  13.214  16.489  0.00  0.00    -0.287 OA
ENDBRANCH   8  11
ENDBRANCH   1   8
TORSDOF 4
REMARK  Name = ../refined-set-2016/3s75/3s75_pocket.pdb
REMARK  144 active torsions:
REMARK  status: ('A' for Active; 'I' for Inactive)
REMARK    1  A    between atoms: _1  and  _3
REMARK    2  A    between atoms: _3  and  _4
REMARK    3  A    between atoms: _3  and  _6
REMARK    4  A    between atoms: _6  and  _7
REMARK    5  A    between atoms: _17  and  _19
REMARK    6  A    between atoms: _19  and  _20
REMARK    7  A    between atoms: _19  and  _22
REMARK    8  A    between atoms: _22  and  _23
REMARK    9  A    between atoms: _28  and  _29
REMARK   10  A    between atoms: _31  and  _33
REMARK   11  A    between atoms: _33  and  _34
REMARK   12  A    between atoms: _33  and  _36
REMARK   13  A    between atoms: _36  and  _37
REMARK   14  A    between atoms: _40  and  _41
REMARK   15  A    between atoms: _46  and  _48
REMARK   16  A    between atoms: _48  and  _49
REMARK   17  A    between atoms: _48  and  _51
REMARK   18  A    between atoms: _51  and  _52
REMARK   19  A    between atoms: _57  and  _59
REMARK   20  A    between atoms: _59  and  _60
REMARK   21  A    between atoms: _63  and  _65
REMARK   22  A    between atoms: _65  and  _66
REMARK   23  A    between atoms: _65  and  _68
REMARK   24  A    between atoms: _68  and  _69
REMARK   25  A    between atoms: _74  and  _76
REMARK   26  A    between atoms: _76  and  _77
REMARK   27  A    between atoms: _76  and  _79
REMARK   28  A    between atoms: _79  and  _80
REMARK   29  A    between atoms: _83  and  _85
REMARK   30  A    between atoms: _85  and  _86
REMARK   31  A    between atoms: _85  and  _88
REMARK   32  A    between atoms: _88  and  _89
REMARK   33  A    between atoms: _89  and  _90
REMARK   34  A    between atoms: _95  and  _97
REMARK   35  A    between atoms: _97  and  _98
REMARK   36  A    between atoms: _97  and  _100
REMARK   37  A    between atoms: _100  and  _101
REMARK   38  A    between atoms: _107  and  _109
REMARK   39  A    between atoms: _120  and  _123
REMARK   40  A    between atoms: _123  and  _124
REMARK   41  A    between atoms: _132  and  _133
REMARK   42  A    between atoms: _141  and  _143
REMARK   43  A    between atoms: _143  and  _144
REMARK   44  A    between atoms: _143  and  _146
REMARK   45  A    between atoms: _146  and  _147
REMARK   46  A    between atoms: _147  and  _148
REMARK   47  A    between atoms: _151  and  _153
REMARK   48  A    between atoms: _153  and  _154
REMARK   49  A    between atoms: _153  and  _156
REMARK   50  A    between atoms: _156  and  _157
REMARK   51  A    between atoms: _162  and  _164
REMARK   52  A    between atoms: _164  and  _165
REMARK   53  A    between atoms: _164  and  _167
REMARK   54  A    between atoms: _167  and  _168
REMARK   55  A    between atoms: _168  and  _169
REMARK   56  A    between atoms: _172  and  _174
REMARK   57  A    between atoms: _174  and  _175
REMARK   58  A    between atoms: _174  and  _177
REMARK   59  A    between atoms: _177  and  _178
REMARK   60  A    between atoms: _181  and  _183
REMARK   61  A    between atoms: _183  and  _184
REMARK   62  A    between atoms: _183  and  _186
REMARK   63  A    between atoms: _186  and  _187
REMARK   64  A    between atoms: _188  and  ZN_408
REMARK   65  A    between atoms: _192  and  _194
REMARK   66  A    between atoms: _194  and  _195
REMARK   67  A    between atoms: _194  and  _197
REMARK   68  A    between atoms: _197  and  _198
REMARK   69  A    between atoms: _201  and  _203
REMARK   70  A    between atoms: _203  and  _204
REMARK   71  A    between atoms: _203  and  _206
REMARK   72  A    between atoms: _209  and  _211
REMARK   73  A    between atoms: _211  and  _212
REMARK   74  A    between atoms: _211  and  _214
REMARK   75  A    between atoms: _214  and  _215
REMARK   76  A    between atoms: _220  and  _222
REMARK   77  A    between atoms: _222  and  _223
REMARK   78  A    between atoms: _222  and  _225
REMARK   79  A    between atoms: _225  and  _226
REMARK   80  A    between atoms: _232  and  _234
REMARK   81  A    between atoms: _234  and  _235
REMARK   82  A    between atoms: _234  and  _237
REMARK   83  A    between atoms: _240  and  _242
REMARK   84  A    between atoms: _242  and  _243
REMARK   85  A    between atoms: _242  and  _245
REMARK   86  A    between atoms: _249  and  _251
REMARK   87  A    between atoms: _251  and  _252
REMARK   88  A    between atoms: _255  and  _257
REMARK   89  A    between atoms: _257  and  _258
REMARK   90  A    between atoms: _257  and  _260
REMARK   91  A    between atoms: _263  and  _265
REMARK   92  A    between atoms: _265  and  _266
REMARK   93  A    between atoms: _265  and  _268
REMARK   94  A    between atoms: _268  and  _269
REMARK   95  A    between atoms: _272  and  _274
REMARK   96  A    between atoms: _274  and  _275
REMARK   97  A    between atoms: _277  and  _279
REMARK   98  A    between atoms: _279  and  _280
REMARK   99  A    between atoms: _282  and  _284
REMARK  100  A    between atoms: _284  and  _285
REMARK  101  A    between atoms: _284  and  _287
REMARK  102  A    between atoms: _287  and  _288
REMARK  103  A    between atoms: _290  and  _292
REMARK  104  A    between atoms: _292  and  _293
REMARK  105  A    between atoms: _292  and  _295
REMARK  106  A    between atoms: _295  and  _296
REMARK  107  A    between atoms: _299  and  _301
REMARK  108  A    between atoms: _301  and  _302
REMARK  109  A    between atoms: _301  and  _304
REMARK  110  A    between atoms: _304  and  _305
REMARK  111  A    between atoms: _308  and  _310
REMARK  112  A    between atoms: _310  and  _311
REMARK  113  A    between atoms: _310  and  _313
REMARK  114  A    between atoms: _313  and  _314
REMARK  115  A    between atoms: _318  and  _319
REMARK  116  A    between atoms: _325  and  _326
REMARK  117  A    between atoms: _331  and  _333
REMARK  118  A    between atoms: _333  and  _334
REMARK  119  A    between atoms: _333  and  _336
REMARK  120  A    between atoms: _336  and  _337
REMARK  121  A    between atoms: _340  and  _342
REMARK  122  A    between atoms: _342  and  _343
REMARK  123  A    between atoms: _342  and  _345
REMARK  124  A    between atoms: _345  and  _346
REMARK  125  A    between atoms: _349  and  _351
REMARK  126  A    between atoms: _351  and  _352
REMARK  127  A    between atoms: _351  and  _354
REMARK  128  A    between atoms: _356  and  _358
REMARK  129  A    between atoms: _358  and  _359
REMARK  130  A    between atoms: _358  and  _361
REMARK  131  A    between atoms: _364  and  _366
REMARK  132  A    between atoms: _366  and  _367
REMARK  133  A    between atoms: _366  and  _369
REMARK  134  A    between atoms: _369  and  _370
REMARK  135  A    between atoms: _380  and  _382
REMARK  136  A    between atoms: _382  and  _383
REMARK  137  A    between atoms: _382  and  _385
REMARK  138  A    between atoms: _385  and  _386
REMARK  139  A    between atoms: _391  and  _393
REMARK  140  A    between atoms: _393  and  _394
REMARK  141  A    between atoms: _393  and  _396
REMARK  142  A    between atoms: _396  and  _397
REMARK  143  A    between atoms: _397  and  _398
REMARK  144  A    between atoms: _398  and  _399
REMARK                            x       y       z     vdW  Elec       q    Type
REMARK                         _______ _______ _______ _____ _____    ______ ____
ROOT
ATOM      1  CA  VAL A   1      17.232  11.511  19.750  0.00  0.00    +0.133 C 
ENDROOT
BRANCH   1   2
ATOM      2  CB  VAL A   1      17.886  10.699  18.570  0.00  0.00    +0.023 C 
ATOM      3  CG2 VAL A   1      18.809  11.594  17.748  0.00  0.00    +0.002 C 
ATOM      4  CG1 VAL A   1      16.824  10.082  17.652  0.00  0.00    +0.002 C 
ENDBRANCH   1   2
BRANCH   1   5
ATOM      5  N   VAL A   1      16.310  12.587  19.304  0.00  0.00    -0.239 NA
ATOM      6  H   VAL A   1      16.294  12.931  18.323  0.00  0.00    +0.142 HD
ENDBRANCH   1   5
BRANCH   1   7
ATOM      7  C   VAL A   1      18.310  11.884  20.759  0.00  0.00    +0.224 C 
ATOM      8  O   VAL A   1      19.004  11.006  21.299  0.00  0.00    -0.287 OA
ENDBRANCH   1   7
TORSDOF 3
REMARK  Name = ../refined-set-2016/3s75/3s75_pocket.pdb
REMARK  144 active torsions:
REMARK  status: ('A' for Active; 'I' for Inactive)
REMARK    1  A    between atoms: _1  and  _3
REMARK    2  A    between atoms: _3  and  _4
REMARK    3  A    between atoms: _3  and  _6
REMARK    4  A    between atoms: _6  and  _7
REMARK    5  A    between atoms: _17  and  _19
REMARK    6  A    between atoms: _19  and  _20
REMARK    7  A    between atoms: _19  and  _22
REMARK    8  A    between atoms: _22  and  _23
REMARK    9  A    between atoms: _28  and  _29
REMARK   10  A    between atoms: _31  and  _33
REMARK   11  A    between atoms: _33  and  _34
REMARK   12  A    between atoms: _33  and  _36
REMARK   13  A    between atoms: _36  and  _37
REMARK   14  A    between atoms: _40  and  _41
REMARK   15  A    between atoms: _46  and  _48
REMARK   16  A    between atoms: _48  and  _49
REMARK   17  A    between atoms: _48  and  _51
REMARK   18  A    between atoms: _51  and  _52
REMARK   19  A    between atoms: _57  and  _59
REMARK   20  A    between atoms: _59  and  _60
REMARK   21  A    between atoms: _63  and  _65
REMARK   22  A    between atoms: _65  and  _66
REMARK   23  A    between atoms: _65  and  _68
REMARK   24  A    between atoms: _68  and  _69
REMARK   25  A    between atoms: _74  and  _76
REMARK   26  A    between atoms: _76  and  _77
REMARK   27  A    between atoms: _76  and  _79
REMARK   28  A    between atoms: _79  and  _80
REMARK   29  A    between atoms: _83  and  _85
REMARK   30  A    between atoms: _85  and  _86
REMARK   31  A    between atoms: _85  and  _88
REMARK   32  A    between atoms: _88  and  _89
REMARK   33  A    between atoms: _89  and  _90
REMARK   34  A    between atoms: _95  and  _97
REMARK   35  A    between atoms: _97  and  _98
REMARK   36  A    between atoms: _97  and  _100
REMARK   37  A    between atoms: _100  and  _101
REMARK   38  A    between atoms: _107  and  _109
REMARK   39  A    between atoms: _120  and  _123
REMARK   40  A    between atoms: _123  and  _124
REMARK   41  A    between atoms: _132  and  _133
REMARK   42  A    between atoms: _141  and  _143
REMARK   43  A    between atoms: _143  and  _144
REMARK   44  A    between atoms: _143  and  _146
REMARK   45  A    between atoms: _146  and  _147
REMARK   46  A    between atoms: _147  and  _148
REMARK   47  A    between atoms: _151  and  _153
REMARK   48  A    between atoms: _153  and  _154
REMARK   49  A    between atoms: _153  and  _156
REMARK   50  A    between atoms: _156  and  _157
REMARK   51  A    between atoms: _162  and  _164
REMARK   52  A    between atoms: _164  and  _165
REMARK   53  A    between atoms: _164  and  _167
REMARK   54  A    between atoms: _167  and  _168
REMARK   55  A    between atoms: _168  and  _169
REMARK   56  A    between atoms: _172  and  _174
REMARK   57  A    between atoms: _174  and  _175
REMARK   58  A    between atoms: _174  and  _177
REMARK   59  A    between atoms: _177  and  _178
REMARK   60  A    between atoms: _181  and  _183
REMARK   61  A    between atoms: _183  and  _184
REMARK   62  A    between atoms: _183  and  _186
REMARK   63  A    between atoms: _186  and  _187
REMARK   64  A    between atoms: _188  and  ZN_408
REMARK   65  A    between atoms: _192  and  _194
REMARK   66  A    between atoms: _194  and  _195
REMARK   67  A    between atoms: _194  and  _197
REMARK   68  A    between atoms: _197  and  _198
REMARK   69  A    between atoms: _201  and  _203
REMARK   70  A    between atoms: _203  and  _204
REMARK   71  A    between atoms: _203  and  _206
REMARK   72  A    between atoms: _209  and  _211
REMARK   73  A    between atoms: _211  and  _212
REMARK   74  A    between atoms: _211  and  _214
REMARK   75  A    between atoms: _214  and  _215
REMARK   76  A    between atoms: _220  and  _222
REMARK   77  A    between atoms: _222  and  _223
REMARK   78  A    between atoms: _222  and  _225
REMARK   79  A    between atoms: _225  and  _226
REMARK   80  A    between atoms: _232  and  _234
REMARK   81  A    between atoms: _234  and  _235
REMARK   82  A    between atoms: _234  and  _237
REMARK   83  A    between atoms: _240  and  _242
REMARK   84  A    between atoms: _242  and  _243
REMARK   85  A    between atoms: _242  and  _245
REMARK   86  A    between atoms: _249  and  _251
REMARK   87  A    between atoms: _251  and  _252
REMARK   88  A    between atoms: _255  and  _257
REMARK   89  A    between atoms: _257  and  _258
REMARK   90  A    between atoms: _257  and  _260
REMARK   91  A    between atoms: _263  and  _265
REMARK   92  A    between atoms: _265  and  _266
REMARK   93  A    between atoms: _265  and  _268
REMARK   94  A    between atoms: _268  and  _269
REMARK   95  A    between atoms: _272  and  _274
REMARK   96  A    between atoms: _274  and  _275
REMARK   97  A    between atoms: _277  and  _279
REMARK   98  A    between atoms: _279  and  _280
REMARK   99  A    between atoms: _282  and  _284
REMARK  100  A    between atoms: _284  and  _285
REMARK  101  A    between atoms: _284  and  _287
REMARK  102  A    between atoms: _287  and  _288
REMARK  103  A    between atoms: _290  and  _292
REMARK  104  A    between atoms: _292  and  _293
REMARK  105  A    between atoms: _292  and  _295
REMARK  106  A    between atoms: _295  and  _296
REMARK  107  A    between atoms: _299  and  _301
REMARK  108  A    between atoms: _301  and  _302
REMARK  109  A    between atoms: _301  and  _304
REMARK  110  A    between atoms: _304  and  _305
REMARK  111  A    between atoms: _308  and  _310
REMARK  112  A    between atoms: _310  and  _311
REMARK  113  A    between atoms: _310  and  _313
REMARK  114  A    between atoms: _313  and  _314
REMARK  115  A    between atoms: _318  and  _319
REMARK  116  A    between atoms: _325  and  _326
REMARK  117  A    between atoms: _331  and  _333
REMARK  118  A    between atoms: _333  and  _334
REMARK  119  A    between atoms: _333  and  _336
REMARK  120  A    between atoms: _336  and  _337
REMARK  121  A    between atoms: _340  and  _342
REMARK  122  A    between atoms: _342  and  _343
REMARK  123  A    between atoms: _342  and  _345
REMARK  124  A    between atoms: _345  and  _346
REMARK  125  A    between atoms: _349  and  _351
REMARK  126  A    between atoms: _351  and  _352
REMARK  127  A    between atoms: _351  and  _354
REMARK  128  A    between atoms: _356  and  _358
REMARK  129  A    between atoms: _358  and  _359
REMARK  130  A    between atoms: _358  and  _361
REMARK  131  A    between atoms: _364  and  _366
REMARK  132  A    between atoms: _366  and  _367
REMARK  133  A    between atoms: _366  and  _369
REMARK  134  A    between atoms: _369  and  _370
REMARK  135  A    between atoms: _380  and  _382
REMARK  136  A    between atoms: _382  and  _383
REMARK  137  A    between atoms: _382  and  _385
REMARK  138  A    between atoms: _385  and  _386
REMARK  139  A    between atoms: _391  and  _393
REMARK  140  A    between atoms: _393  and  _394
REMARK  141  A    between atoms: _393  and  _396
REMARK  142  A    between atoms: _396  and  _397
REMARK  143  A    between atoms: _397  and  _398
REMARK  144  A    between atoms: _398  and  _399
REMARK                            x       y       z     vdW  Elec       q    Type
REMARK                         _______ _______ _______ _____ _____    ______ ____
ROOT
ATOM      1  CA  VAL A   3       9.112   2.804  20.001  0.00  0.00    +0.149 C 
ENDROOT
BRANCH   1   3
ATOM      2  C   ALA A   2       8.707   5.103  20.716  0.00  0.00    +0.241 C 
ATOM      3  N   VAL A   3       9.166   3.844  21.014  0.00  0.00    -0.297 N 
ATOM      4  H   VAL A   3       9.550   3.636  21.958  0.00  0.00    +0.150 HD
ATOM      5  O   ALA A   2       8.279   5.415  19.626  0.00  0.00    -0.273 OA
BRANCH   2   6
ATOM      6  CA  ALA A   2       8.746   6.101  21.857  0.00  0.00    +0.149 C 
ATOM      7  CB  ALA A   2       7.317   6.584  22.264  0.00  0.00    +0.031 C 
BRANCH   6  10
ATOM      8  C   LEU A   1      10.538   7.735  21.988  0.00  0.00    +0.243 C 
ATOM      9  O   LEU A   1      10.799   7.460  23.191  0.00  0.00    -0.273 OA
ATOM     10  N   ALA A   2       9.533   7.219  21.272  0.00  0.00    -0.297 N 
ATOM     11  H   ALA A   2       9.307   7.591  20.328  0.00  0.00    +0.150 HD
BRANCH   8  12
ATOM     12  CA  LEU A   1      11.427   8.665  21.201  0.00  0.00    +0.166 C 
BRANCH  12  13
ATOM     13  CB  LEU A   1      12.441   7.792  20.494  0.00  0.00    -0.009 C 
ATOM     14  CG  LEU A   1      13.316   8.396  19.428  0.00  0.00    -0.046 C 
ATOM     15  CD2 LEU A   1      13.179   9.706  18.757  0.00  0.00    +0.026 C 
ATOM     16  CD1 LEU A   1      13.921   7.366  18.520  0.00  0.00    +0.026 C 
ENDBRANCH  12  13
BRANCH  12  17
ATOM     17  N   LEU A   1      12.082   9.620  22.101  0.00  0.00    -0.234 NA
ATOM     18  H   LEU A   1      12.634   9.263  22.907  0.00  0.00    +0.142 HD
ENDBRANCH  12  17
ENDBRANCH   8  12
ENDBRANCH   6  10
ENDBRANCH   2   6
ENDBRANCH   1   3
BRANCH   1  19
ATOM     19  C   VAL A   3       8.152   1.742  20.511  0.00  0.00    +0.241 C 
ATOM     20  O   VAL A   3       8.268   1.284  21.622  0.00  0.00    -0.273 OA
ATOM     21  N   LEU A   4       7.154   1.455  19.691  0.00  0.00    -0.297 N 
ATOM     22  H   LEU A   4       7.039   2.035  18.836  0.00  0.00    +0.150 HD
BRANCH  21  23
ATOM     23  CA  LEU A   4       6.215   0.381  19.917  0.00  0.00    +0.149 C 
BRANCH  23  24
ATOM     24  C   LEU A   4       6.733  -0.874  19.277  0.00  0.00    +0.241 C 
ATOM     25  N   GLY A   5       7.041  -1.867  20.089  0.00  0.00    -0.296 N 
ATOM     26  H   GLY A   5       6.852  -1.739  21.104  0.00  0.00    +0.150 HD
ATOM     27  O   LEU A   4       6.931  -0.944  18.057  0.00  0.00    -0.273 OA
BRANCH  25  28
ATOM     28  CA  GLY A   5       7.635  -3.146  19.658  0.00  0.00    +0.163 C 
BRANCH  28  29
ATOM     29  C   GLY A   5       6.563  -4.226  19.631  0.00  0.00    +0.229 C 
ATOM     30  O   GLY A   5       5.823  -4.369  20.619  0.00  0.00    -0.286 OA
ENDBRANCH  28  29
ENDBRANCH  25  28
ENDBRANCH  23  24
BRANCH  23  31
ATOM     31  CB  LEU A   4       4.835   0.853  19.366  0.00  0.00    +0.029 C 
BRANCH  31  32
ATOM     32  CG  LEU A   4       3.654  -0.108  19.534  0.00  0.00    +0.002 C 
ATOM     33  CD2 LEU A   4       3.424  -0.430  20.957  0.00  0.00    +0.000 C 
ATOM     34  CD1 LEU A   4       2.381   0.508  18.903  0.00  0.00    +0.000 C 
ENDBRANCH  31  32
ENDBRANCH  23  31
ENDBRANCH  21  23
ENDBRANCH   1  19
BRANCH   1  35
ATOM     35  CB  VAL A   3      10.533   2.170  19.704  0.00  0.00    +0.027 C 
ATOM     36  CG2 VAL A   3      11.477   3.296  19.224  0.00  0.00    +0.002 C 
ATOM     37  CG1 VAL A   3      10.383   1.135  18.531  0.00  0.00    +0.002 C 
ENDBRANCH   1  35
TORSDOF 14
REMARK  Name = ../refined-set-2016/3s75/3s75_pocket.pdb
REMARK  144 active torsions:
REMARK  status: ('A' for Active; 'I' for Inactive)
REMARK    1  A    between atoms: _1  and  _3
REMARK    2  A    between atoms: _3  and  _4
REMARK    3  A    between atoms: _3  and  _6
REMARK    4  A    between atoms: _6  and  _7
REMARK    5  A    between atoms: _17  and  _19
REMARK    6  A    between atoms: _19  and  _20
REMARK    7  A    between atoms: _19  and  _22
REMARK    8  A    between atoms: _22  and  _23
REMARK    9  A    between atoms: _28  and  _29
REMARK   10  A    between atoms: _31  and  _33
REMARK   11  A    between atoms: _33  and  _34
REMARK   12  A    between atoms: _33  and  _36
REMARK   13  A    between atoms: _36  and  _37
REMARK   14  A    between atoms: _40  and  _41
REMARK   15  A    between atoms: _46  and  _48
REMARK   16  A    between atoms: _48  and  _49
REMARK   17  A    between atoms: _48  and  _51
REMARK   18  A    between atoms: _51  and  _52
REMARK   19  A    between atoms: _57  and  _59
REMARK   20  A    between atoms: _59  and  _60
REMARK   21  A    between atoms: _63  and  _65
REMARK   22  A    between atoms: _65  and  _66
REMARK   23  A    between atoms: _65  and  _68
REMARK   24  A    between atoms: _68  and  _69
REMARK   25  A    between atoms: _74  and  _76
REMARK   26  A    between atoms: _76  and  _77
REMARK   27  A    between atoms: _76  and  _79
REMARK   28  A    between atoms: _79  and  _80
REMARK   29  A    between atoms: _83  and  _85
REMARK   30  A    between atoms: _85  and  _86
REMARK   31  A    between atoms: _85  and  _88
REMARK   32  A    between atoms: _88  and  _89
REMARK   33  A    between atoms: _89  and  _90
REMARK   34  A    between atoms: _95  and  _97
REMARK   35  A    between atoms: _97  and  _98
REMARK   36  A    between atoms: _97  and  _100
REMARK   37  A    between atoms: _100  and  _101
REMARK   38  A    between atoms: _107  and  _109
REMARK   39  A    between atoms: _120  and  _123
REMARK   40  A    between atoms: _123  and  _124
REMARK   41  A    between atoms: _132  and  _133
REMARK   42  A    between atoms: _141  and  _143
REMARK   43  A    between atoms: _143  and  _144
REMARK   44  A    between atoms: _143  and  _146
REMARK   45  A    between atoms: _146  and  _147
REMARK   46  A    between atoms: _147  and  _148
REMARK   47  A    between atoms: _151  and  _153
REMARK   48  A    between atoms: _153  and  _154
REMARK   49  A    between atoms: _153  and  _156
REMARK   50  A    between atoms: _156  and  _157
REMARK   51  A    between atoms: _162  and  _164
REMARK   52  A    between atoms: _164  and  _165
REMARK   53  A    between atoms: _164  and  _167
REMARK   54  A    between atoms: _167  and  _168
REMARK   55  A    between atoms: _168  and  _169
REMARK   56  A    between atoms: _172  and  _174
REMARK   57  A    between atoms: _174  and  _175
REMARK   58  A    between atoms: _174  and  _177
REMARK   59  A    between atoms: _177  and  _178
REMARK   60  A    between atoms: _181  and  _183
REMARK   61  A    between atoms: _183  and  _184
REMARK   62  A    between atoms: _183  and  _186
REMARK   63  A    between atoms: _186  and  _187
REMARK   64  A    between atoms: _188  and  ZN_408
REMARK   65  A    between atoms: _192  and  _194
REMARK   66  A    between atoms: _194  and  _195
REMARK   67  A    between atoms: _194  and  _197
REMARK   68  A    between atoms: _197  and  _198
REMARK   69  A    between atoms: _201  and  _203
REMARK   70  A    between atoms: _203  and  _204
REMARK   71  A    between atoms: _203  and  _206
REMARK   72  A    between atoms: _209  and  _211
REMARK   73  A    between atoms: _211  and  _212
REMARK   74  A    between atoms: _211  and  _214
REMARK   75  A    between atoms: _214  and  _215
REMARK   76  A    between atoms: _220  and  _222
REMARK   77  A    between atoms: _222  and  _223
REMARK   78  A    between atoms: _222  and  _225
REMARK   79  A    between atoms: _225  and  _226
REMARK   80  A    between atoms: _232  and  _234
REMARK   81  A    between atoms: _234  and  _235
REMARK   82  A    between atoms: _234  and  _237
REMARK   83  A    between atoms: _240  and  _242
REMARK   84  A    between atoms: _242  and  _243
REMARK   85  A    between atoms: _242  and  _245
REMARK   86  A    between atoms: _249  and  _251
REMARK   87  A    between atoms: _251  and  _252
REMARK   88  A    between atoms: _255  and  _257
REMARK   89  A    between atoms: _257  and  _258
REMARK   90  A    between atoms: _257  and  _260
REMARK   91  A    between atoms: _263  and  _265
REMARK   92  A    between atoms: _265  and  _266
REMARK   93  A    between atoms: _265  and  _268
REMARK   94  A    between atoms: _268  and  _269
REMARK   95  A    between atoms: _272  and  _274
REMARK   96  A    between atoms: _274  and  _275
REMARK   97  A    between atoms: _277  and  _279
REMARK   98  A    between atoms: _279  and  _280
REMARK   99  A    between atoms: _282  and  _284
REMARK  100  A    between atoms: _284  and  _285
REMARK  101  A    between atoms: _284  and  _287
REMARK  102  A    between atoms: _287  and  _288
REMARK  103  A    between atoms: _290  and  _292
REMARK  104  A    between atoms: _292  and  _293
REMARK  105  A    between atoms: _292  and  _295
REMARK  106  A    between atoms: _295  and  _296
REMARK  107  A    between atoms: _299  and  _301
REMARK  108  A    between atoms: _301  and  _302
REMARK  109  A    between atoms: _301  and  _304
REMARK  110  A    between atoms: _304  and  _305
REMARK  111  A    between atoms: _308  and  _310
REMARK  112  A    between atoms: _310  and  _311
REMARK  113  A    between atoms: _310  and  _313
REMARK  114  A    between atoms: _313  and  _314
REMARK  115  A    between atoms: _318  and  _319
REMARK  116  A    between atoms: _325  and  _326
REMARK  117  A    between atoms: _331  and  _333
REMARK  118  A    between atoms: _333  and  _334
REMARK  119  A    between atoms: _333  and  _336
REMARK  120  A    between atoms: _336  and  _337
REMARK  121  A    between atoms: _340  and  _342
REMARK  122  A    between atoms: _342  and  _343
REMARK  123  A    between atoms: _342  and  _345
REMARK  124  A    between atoms: _345  and  _346
REMARK  125  A    between atoms: _349  and  _351
REMARK  126  A    between atoms: _351  and  _352
REMARK  127  A    between atoms: _351  and  _354
REMARK  128  A    between atoms: _356  and  _358
REMARK  129  A    between atoms: _358  and  _359
REMARK  130  A    between atoms: _358  and  _361
REMARK  131  A    between atoms: _364  and  _366
REMARK  132  A    between atoms: _366  and  _367
REMARK  133  A    between atoms: _366  and  _369
REMARK  134  A    between atoms: _369  and  _370
REMARK  135  A    between atoms: _380  and  _382
REMARK  136  A    between atoms: _382  and  _383
REMARK  137  A    between atoms: _382  and  _385
REMARK  138  A    between atoms: _385  and  _386
REMARK  139  A    between atoms: _391  and  _393
REMARK  140  A    between atoms: _393  and  _394
REMARK  141  A    between atoms: _393  and  _396
REMARK  142  A    between atoms: _396  and  _397
REMARK  143  A    between atoms: _397  and  _398
REMARK  144  A    between atoms: _398  and  _399
REMARK                            x       y       z     vdW  Elec       q    Type
REMARK                         _______ _______ _______ _____ _____    ______ ____
ROOT
ATOM      1  CA  THR A   5      21.239   0.232  16.095  0.00  0.00    +0.176 C 
ENDROOT
BRANCH   1   2
ATOM      2  C   THR A   5      22.062   1.460  16.419  0.00  0.00    +0.246 C 
ATOM      3  O   THR A   5      21.550   2.461  16.996  0.00  0.00    -0.273 OA
ATOM      4  N   PRO A   6      23.352   1.394  16.013  0.00  0.00    -0.272 N 
ATOM      5  CA  PRO A   6      24.149   2.659  16.134  0.00  0.00    +0.152 C 
ATOM      6  CB  PRO A   6      25.415   2.325  15.305  0.00  0.00    +0.031 C 
ATOM      7  CG  PRO A   6      25.569   0.801  15.551  0.00  0.00    +0.024 C 
ATOM      8  CD  PRO A   6      24.096   0.263  15.460  0.00  0.00    +0.094 C 
BRANCH   5   9
ATOM      9  C   PRO A   6      23.393   3.846  15.544  0.00  0.00    +0.244 C 
ATOM     10  N   PRO A   7      23.423   4.983  16.272  0.00  0.00    -0.272 N 
ATOM     11  CA  PRO A   7      24.371   5.314  17.342  0.00  0.00    +0.152 C 
ATOM     12  CB  PRO A   7      24.422   6.871  17.240  0.00  0.00    +0.031 C 
ATOM     13  CG  PRO A   7      23.055   7.256  16.705  0.00  0.00    +0.024 C 
ATOM     14  CD  PRO A   7      22.683   6.142  15.711  0.00  0.00    +0.094 C 
ATOM     15  O   PRO A   6      22.831   3.781  14.409  0.00  0.00    -0.273 OA
BRANCH  11  16
ATOM     16  C   PRO A   7      23.956   4.894  18.757  0.00  0.00    +0.241 C 
ATOM     17  O   PRO A   7      24.547   5.365  19.757  0.00  0.00    -0.273 OA
ATOM     18  N   LEU A   8      22.896   4.040  18.845  0.00  0.00    -0.297 N 
ATOM     19  H   LEU A   8      22.306   3.844  18.011  0.00  0.00    +0.150 HD
BRANCH  18  20
ATOM     20  CA  LEU A   8      22.601   3.403  20.131  0.00  0.00    +0.149 C 
BRANCH  20  21
ATOM     21  C   LEU A   8      22.184   4.415  21.258  0.00  0.00    +0.241 C 
ATOM     22  O   LEU A   8      22.346   4.179  22.469  0.00  0.00    -0.273 OA
ATOM     23  N   LEU A   9      21.610   5.541  20.793  0.00  0.00    -0.298 N 
ATOM     24  H   LEU A   9      21.350   5.626  19.790  0.00  0.00    +0.150 HD
BRANCH  23  25
ATOM     25  CA  LEU A   9      21.355   6.656  21.733  0.00  0.00    +0.137 C 
BRANCH  25  26
ATOM     26  C   LEU A   9      20.309   6.292  22.776  0.00  0.00    +0.227 C 
ATOM     27  O   LEU A   9      19.301   5.603  22.470  0.00  0.00    -0.286 OA
ENDBRANCH  25  26
BRANCH  25  28
ATOM     28  CB  LEU A   9      20.903   7.904  20.946  0.00  0.00    +0.028 C 
BRANCH  28  29
ATOM     29  CG  LEU A   9      22.024   8.447  20.044  0.00  0.00    +0.002 C 
ATOM     30  CD2 LEU A   9      23.164   9.058  20.857  0.00  0.00    +0.000 C 
ATOM     31  CD1 LEU A   9      21.464   9.550  19.116  0.00  0.00    +0.000 C 
ENDBRANCH  28  29
ENDBRANCH  25  28
ENDBRANCH  23  25
ENDBRANCH  20  21
BRANCH  20  32
ATOM     32  CB  LEU A   8      23.745   2.545  20.652  0.00  0.00    +0.029 C 
BRANCH  32  33
ATOM     33  CG  LEU A   8      24.074   1.418  19.648  0.00  0.00    +0.002 C 
ATOM     34  CD2 LEU A   8      25.397   0.728  20.140  0.00  0.00    +0.000 C 
ATOM     35  CD1 LEU A   8      22.977   0.336  19.526  0.00  0.00    +0.000 C 
ENDBRANCH  32  33
ENDBRANCH  20  32
ENDBRANCH  18  20
ENDBRANCH  11  16
ENDBRANCH   5   9
ENDBRANCH   1   2
BRANCH   1  38
ATOM     36  C   THR A   4      20.057  -0.940  17.902  0.00  0.00    +0.243 C 
ATOM     37  O   THR A   4      20.699  -1.995  17.746  0.00  0.00    -0.273 OA
ATOM     38  N   THR A   5      20.160   0.147  17.095  0.00  0.00    -0.295 N 
ATOM     39  H   THR A   5      19.474   0.924  17.183  0.00  0.00    +0.150 HD
BRANCH  36  40
ATOM     40  CA  THR A   4      19.077  -0.832  19.011  0.00  0.00    +0.176 C 
BRANCH  40  43
ATOM     41  C   LEU A   3      18.757   1.409  19.907  0.00  0.00    +0.241 C 
ATOM     42  O   LEU A   3      19.829   1.251  20.566  0.00  0.00    -0.273 OA
ATOM     43  N   THR A   4      18.371   0.466  19.052  0.00  0.00    -0.295 N 
ATOM     44  H   THR A   4      17.571   0.642  18.411  0.00  0.00    +0.150 HD
BRANCH  41  45
ATOM     45  CA  LEU A   3      18.031   2.728  19.872  0.00  0.00    +0.149 C 
BRANCH  45  48
ATOM     46  C   SER A   2      17.501   2.606  22.241  0.00  0.00    +0.243 C 
ATOM     47  O   SER A   2      16.742   1.647  22.076  0.00  0.00    -0.273 OA
ATOM     48  N   LEU A   3      18.117   3.270  21.210  0.00  0.00    -0.297 N 
ATOM     49  H   LEU A   3      18.639   4.152  21.389  0.00  0.00    +0.150 HD
BRANCH  46  50
ATOM     50  CA  SER A   2      17.930   2.996  23.653  0.00  0.00    +0.178 C 
BRANCH  50  53
ATOM     51  C   GLY A   1      16.732   3.066  25.749  0.00  0.00    +0.240 C 
ATOM     52  O   GLY A   1      16.817   4.292  25.839  0.00  0.00    -0.274 OA
ATOM     53  N   SER A   2      17.102   2.364  24.685  0.00  0.00    -0.295 N 
ATOM     54  H   SER A   2      16.807   1.372  24.584  0.00  0.00    +0.150 HD
BRANCH  51  55
ATOM     55  CA  GLY A   1      16.178   2.168  26.822  0.00  0.00    +0.169 C 
BRANCH  55  56
ATOM     56  N   GLY A   1      15.054   2.818  27.506  0.00  0.00    -0.236 NA
ATOM     57  H   GLY A   1      14.425   3.479  27.007  0.00  0.00    +0.142 HD
ENDBRANCH  55  56
ENDBRANCH  51  55
ENDBRANCH  50  53
BRANCH  50  58
ATOM     58  CB  SER A   2      19.475   2.576  23.749  0.00  0.00    +0.166 C 
BRANCH  58  59
ATOM     59  OG  SER A   2      19.685   1.229  23.362  0.00  0.00    -0.380 OA
ATOM     60  H   SER A   2      19.389   1.106  22.425  0.00  0.00    +0.211 HD
ENDBRANCH  58  59
ENDBRANCH  50  58
ENDBRANCH  46  50
ENDBRANCH  45  48
BRANCH  45  61
ATOM     61  CB  LEU A   3      18.803   3.669  18.924  0.00  0.00    +0.029 C 
BRANCH  61  62
ATOM     62  CG  LEU A   3      18.396   5.146  18.969  0.00  0.00    +0.002 C 
ATOM     63  CD2 LEU A   3      16.858   5.296  18.603  0.00  0.00    +0.000 C 
ATOM     64  CD1 LEU A   3      19.208   5.906  17.861  0.00  0.00    +0.000 C 
ENDBRANCH  61  62
ENDBRANCH  45  61
ENDBRANCH  41  45
ENDBRANCH  40  43
BRANCH  40  65
ATOM     65  CB  THR A   4      18.061  -2.022  18.872  0.00  0.00    +0.137 C 
ATOM     66  CG2 THR A   4      17.002  -1.930  20.055  0.00  0.00    +0.034 C 
BRANCH  65  67
ATOM     67  OG1 THR A   4      17.410  -1.960  17.616  0.00  0.00    -0.382 OA
ATOM     68  HG1 THR A   4      16.773  -2.713  17.538  0.00  0.00    +0.210 HD
ENDBRANCH  65  67
ENDBRANCH  40  65
ENDBRANCH  36  40
ENDBRANCH   1  38
BRANCH   1  69
ATOM     69  CB  THR A   5      20.668   0.347  14.630  0.00  0.00    +0.137 C 
ATOM     70  CG2 THR A   5      20.054  -0.968  14.214  0.00  0.00    +0.034 C 
BRANCH  69  71
ATOM     71  OG1 THR A   5      19.619   1.345  14.600  0.00  0.00    -0.382 OA
ATOM     72  HG1 THR A   5      19.989   2.219  14.881  0.00  0.00    +0.210 HD
ENDBRANCH  69  71
ENDBRANCH   1  69
TORSDOF 28
REMARK  Name = ../refined-set-2016/3s75/3s75_pocket.pdb
REMARK  144 active torsions:
REMARK  status: ('A' for Active; 'I' for Inactive)
REMARK    1  A    between atoms: _1  and  _3
REMARK    2  A    between atoms: _3  and  _4
REMARK    3  A    between atoms: _3  and  _6
REMARK    4  A    between atoms: _6  and  _7
REMARK    5  A    between atoms: _17  and  _19
REMARK    6  A    between atoms: _19  and  _20
REMARK    7  A    between atoms: _19  and  _22
REMARK    8  A    between atoms: _22  and  _23
REMARK    9  A    between atoms: _28  and  _29
REMARK   10  A    between atoms: _31  and  _33
REMARK   11  A    between atoms: _33  and  _34
REMARK   12  A    between atoms: _33  and  _36
REMARK   13  A    between atoms: _36  and  _37
REMARK   14  A    between atoms: _40  and  _41
REMARK   15  A    between atoms: _46  and  _48
REMARK   16  A    between atoms: _48  and  _49
REMARK   17  A    between atoms: _48  and  _51
REMARK   18  A    between atoms: _51  and  _52
REMARK   19  A    between atoms: _57  and  _59
REMARK   20  A    between atoms: _59  and  _60
REMARK   21  A    between atoms: _63  and  _65
REMARK   22  A    between atoms: _65  and  _66
REMARK   23  A    between atoms: _65  and  _68
REMARK   24  A    between atoms: _68  and  _69
REMARK   25  A    between atoms: _74  and  _76
REMARK   26  A    between atoms: _76  and  _77
REMARK   27  A    between atoms: _76  and  _79
REMARK   28  A    between atoms: _79  and  _80
REMARK   29  A    between atoms: _83  and  _85
REMARK   30  A    between atoms: _85  and  _86
REMARK   31  A    between atoms: _85  and  _88
REMARK   32  A    between atoms: _88  and  _89
REMARK   33  A    between atoms: _89  and  _90
REMARK   34  A    between atoms: _95  and  _97
REMARK   35  A    between atoms: _97  and  _98
REMARK   36  A    between atoms: _97  and  _100
REMARK   37  A    between atoms: _100  and  _101
REMARK   38  A    between atoms: _107  and  _109
REMARK   39  A    between atoms: _120  and  _123
REMARK   40  A    between atoms: _123  and  _124
REMARK   41  A    between atoms: _132  and  _133
REMARK   42  A    between atoms: _141  and  _143
REMARK   43  A    between atoms: _143  and  _144
REMARK   44  A    between atoms: _143  and  _146
REMARK   45  A    between atoms: _146  and  _147
REMARK   46  A    between atoms: _147  and  _148
REMARK   47  A    between atoms: _151  and  _153
REMARK   48  A    between atoms: _153  and  _154
REMARK   49  A    between atoms: _153  and  _156
REMARK   50  A    between atoms: _156  and  _157
REMARK   51  A    between atoms: _162  and  _164
REMARK   52  A    between atoms: _164  and  _165
REMARK   53  A    between atoms: _164  and  _167
REMARK   54  A    between atoms: _167  and  _168
REMARK   55  A    between atoms: _168  and  _169
REMARK   56  A    between atoms: _172  and  _174
REMARK   57  A    between atoms: _174  and  _175
REMARK   58  A    between atoms: _174  and  _177
REMARK   59  A    between atoms: _177  and  _178
REMARK   60  A    between atoms: _181  and  _183
REMARK   61  A    between atoms: _183  and  _184
REMARK   62  A    between atoms: _183  and  _186
REMARK   63  A    between atoms: _186  and  _187
REMARK   64  A    between atoms: _188  and  ZN_408
REMARK   65  A    between atoms: _192  and  _194
REMARK   66  A    between atoms: _194  and  _195
REMARK   67  A    between atoms: _194  and  _197
REMARK   68  A    between atoms: _197  and  _198
REMARK   69  A    between atoms: _201  and  _203
REMARK   70  A    between atoms: _203  and  _204
REMARK   71  A    between atoms: _203  and  _206
REMARK   72  A    between atoms: _209  and  _211
REMARK   73  A    between atoms: _211  and  _212
REMARK   74  A    between atoms: _211  and  _214
REMARK   75  A    between atoms: _214  and  _215
REMARK   76  A    between atoms: _220  and  _222
REMARK   77  A    between atoms: _222  and  _223
REMARK   78  A    between atoms: _222  and  _225
REMARK   79  A    between atoms: _225  and  _226
REMARK   80  A    between atoms: _232  and  _234
REMARK   81  A    between atoms: _234  and  _235
REMARK   82  A    between atoms: _234  and  _237
REMARK   83  A    between atoms: _240  and  _242
REMARK   84  A    between atoms: _242  and  _243
REMARK   85  A    between atoms: _242  and  _245
REMARK   86  A    between atoms: _249  and  _251
REMARK   87  A    between atoms: _251  and  _252
REMARK   88  A    between atoms: _255  and  _257
REMARK   89  A    between atoms: _257  and  _258
REMARK   90  A    between atoms: _257  and  _260
REMARK   91  A    between atoms: _263  and  _265
REMARK   92  A    between atoms: _265  and  _266
REMARK   93  A    between atoms: _265  and  _268
REMARK   94  A    between atoms: _268  and  _269
REMARK   95  A    between atoms: _272  and  _274
REMARK   96  A    between atoms: _274  and  _275
REMARK   97  A    between atoms: _277  and  _279
REMARK   98  A    between atoms: _279  and  _280
REMARK   99  A    between atoms: _282  and  _284
REMARK  100  A    between atoms: _284  and  _285
REMARK  101  A    between atoms: _284  and  _287
REMARK  102  A    between atoms: _287  and  _288
REMARK  103  A    between atoms: _290  and  _292
REMARK  104  A    between atoms: _292  and  _293
REMARK  105  A    between atoms: _292  and  _295
REMARK  106  A    between atoms: _295  and  _296
REMARK  107  A    between atoms: _299  and  _301
REMARK  108  A    between atoms: _301  and  _302
REMARK  109  A    between atoms: _301  and  _304
REMARK  110  A    between atoms: _304  and  _305
REMARK  111  A    between atoms: _308  and  _310
REMARK  112  A    between atoms: _310  and  _311
REMARK  113  A    between atoms: _310  and  _313
REMARK  114  A    between atoms: _313  and  _314
REMARK  115  A    between atoms: _318  and  _319
REMARK  116  A    between atoms: _325  and  _326
REMARK  117  A    between atoms: _331  and  _333
REMARK  118  A    between atoms: _333  and  _334
REMARK  119  A    between atoms: _333  and  _336
REMARK  120  A    between atoms: _336  and  _337
REMARK  121  A    between atoms: _340  and  _342
REMARK  122  A    between atoms: _342  and  _343
REMARK  123  A    between atoms: _342  and  _345
REMARK  124  A    between atoms: _345  and  _346
REMARK  125  A    between atoms: _349  and  _351
REMARK  126  A    between atoms: _351  and  _352
REMARK  127  A    between atoms: _351  and  _354
REMARK  128  A    between atoms: _356  and  _358
REMARK  129  A    between atoms: _358  and  _359
REMARK  130  A    between atoms: _358  and  _361
REMARK  131  A    between atoms: _364  and  _366
REMARK  132  A    between atoms: _366  and  _367
REMARK  133  A    between atoms: _366  and  _369
REMARK  134  A    between atoms: _369  and  _370
REMARK  135  A    between atoms: _380  and  _382
REMARK  136  A    between atoms: _382  and  _383
REMARK  137  A    between atoms: _382  and  _385
REMARK  138  A    between atoms: _385  and  _386
REMARK  139  A    between atoms: _391  and  _393
REMARK  140  A    between atoms: _393  and  _394
REMARK  141  A    between atoms: _393  and  _396
REMARK  142  A    between atoms: _396  and  _397
REMARK  143  A    between atoms: _397  and  _398
REMARK  144  A    between atoms: _398  and  _399
REMARK                            x       y       z     vdW  Elec       q    Type
REMARK                         _______ _______ _______ _____ _____    ______ ____
ROOT
ATOM      1  C   CYS A   1      15.140   7.679  23.963  0.00  0.00    +0.239 C 
ATOM      2  N   VAL A   2      14.989   6.372  24.263  0.00  0.00    -0.298 N 
ATOM      3  H   VAL A   2      15.761   5.866  24.742  0.00  0.00    +0.150 HD
ATOM      4  O   CYS A   1      14.226   8.345  23.562  0.00  0.00    -0.274 OA
ENDROOT
BRANCH   1   5
ATOM      5  CA  CYS A   1      16.507   8.313  24.117  0.00  0.00    +0.156 C 
BRANCH   5   6
ATOM      6  N   CYS A   1      17.527   7.247  24.321  0.00  0.00    -0.237 NA
ATOM      7  H   CYS A   1      17.527   6.412  23.701  0.00  0.00    +0.142 HD
ENDBRANCH   5   6
BRANCH   5   8
ATOM      8  CB  CYS A   1      16.845   9.084  22.804  0.00  0.00    +0.095 C 
ATOM      9  SG  CYS A   1      16.820   8.083  21.297  0.00  0.00    -0.080 S 
ENDBRANCH   5   8
ENDBRANCH   1   5
BRANCH   2  10
ATOM     10  CA  VAL A   2      13.745   5.644  23.924  0.00  0.00    +0.137 C 
BRANCH  10  11
ATOM     11  CB  VAL A   2      14.054   4.369  23.069  0.00  0.00    +0.026 C 
ATOM     12  CG2 VAL A   2      12.711   3.683  22.671  0.00  0.00    +0.002 C 
ATOM     13  CG1 VAL A   2      14.799   4.746  21.803  0.00  0.00    +0.002 C 
ENDBRANCH  10  11
BRANCH  10  14
ATOM     14  C   VAL A   2      12.955   5.197  25.121  0.00  0.00    +0.227 C 
ATOM     15  O   VAL A   2      13.488   4.607  26.087  0.00  0.00    -0.286 OA
ENDBRANCH  10  14
ENDBRANCH   2  10
TORSDOF 6
REMARK  Name = ../refined-set-2016/3s75/3s75_pocket.pdb
REMARK  144 active torsions:
REMARK  status: ('A' for Active; 'I' for Inactive)
REMARK    1  A    between atoms: _1  and  _3
REMARK    2  A    between atoms: _3  and  _4
REMARK    3  A    between atoms: _3  and  _6
REMARK    4  A    between atoms: _6  and  _7
REMARK    5  A    between atoms: _17  and  _19
REMARK    6  A    between atoms: _19  and  _20
REMARK    7  A    between atoms: _19  and  _22
REMARK    8  A    between atoms: _22  and  _23
REMARK    9  A    between atoms: _28  and  _29
REMARK   10  A    between atoms: _31  and  _33
REMARK   11  A    between atoms: _33  and  _34
REMARK   12  A    between atoms: _33  and  _36
REMARK   13  A    between atoms: _36  and  _37
REMARK   14  A    between atoms: _40  and  _41
REMARK   15  A    between atoms: _46  and  _48
REMARK   16  A    between atoms: _48  and  _49
REMARK   17  A    between atoms: _48  and  _51
REMARK   18  A    between atoms: _51  and  _52
REMARK   19  A    between atoms: _57  and  _59
REMARK   20  A    between atoms: _59  and  _60
REMARK   21  A    between atoms: _63  and  _65
REMARK   22  A    between atoms: _65  and  _66
REMARK   23  A    between atoms: _65  and  _68
REMARK   24  A    between atoms: _68  and  _69
REMARK   25  A    between atoms: _74  and  _76
REMARK   26  A    between atoms: _76  and  _77
REMARK   27  A    between atoms: _76  and  _79
REMARK   28  A    between atoms: _79  and  _80
REMARK   29  A    between atoms: _83  and  _85
REMARK   30  A    between atoms: _85  and  _86
REMARK   31  A    between atoms: _85  and  _88
REMARK   32  A    between atoms: _88  and  _89
REMARK   33  A    between atoms: _89  and  _90
REMARK   34  A    between atoms: _95  and  _97
REMARK   35  A    between atoms: _97  and  _98
REMARK   36  A    between atoms: _97  and  _100
REMARK   37  A    between atoms: _100  and  _101
REMARK   38  A    between atoms: _107  and  _109
REMARK   39  A    between atoms: _120  and  _123
REMARK   40  A    between atoms: _123  and  _124
REMARK   41  A    between atoms: _132  and  _133
REMARK   42  A    between atoms: _141  and  _143
REMARK   43  A    between atoms: _143  and  _144
REMARK   44  A    between atoms: _143  and  _146
REMARK   45  A    between atoms: _146  and  _147
REMARK   46  A    between atoms: _147  and  _148
REMARK   47  A    between atoms: _151  and  _153
REMARK   48  A    between atoms: _153  and  _154
REMARK   49  A    between atoms: _153  and  _156
REMARK   50  A    between atoms: _156  and  _157
REMARK   51  A    between atoms: _162  and  _164
REMARK   52  A    between atoms: _164  and  _165
REMARK   53  A    between atoms: _164  and  _167
REMARK   54  A    between atoms: _167  and  _168
REMARK   55  A    between atoms: _168  and  _169
REMARK   56  A    between atoms: _172  and  _174
REMARK   57  A    between atoms: _174  and  _175
REMARK   58  A    between atoms: _174  and  _177
REMARK   59  A    between atoms: _177  and  _178
REMARK   60  A    between atoms: _181  and  _183
REMARK   61  A    between atoms: _183  and  _184
REMARK   62  A    between atoms: _183  and  _186
REMARK   63  A    between atoms: _186  and  _187
REMARK   64  A    between atoms: _188  and  ZN_408
REMARK   65  A    between atoms: _192  and  _194
REMARK   66  A    between atoms: _194  and  _195
REMARK   67  A    between atoms: _194  and  _197
REMARK   68  A    between atoms: _197  and  _198
REMARK   69  A    between atoms: _201  and  _203
REMARK   70  A    between atoms: _203  and  _204
REMARK   71  A    between atoms: _203  and  _206
REMARK   72  A    between atoms: _209  and  _211
REMARK   73  A    between atoms: _211  and  _212
REMARK   74  A    between atoms: _211  and  _214
REMARK   75  A    between atoms: _214  and  _215
REMARK   76  A    between atoms: _220  and  _222
REMARK   77  A    between atoms: _222  and  _223
REMARK   78  A    between atoms: _222  and  _225
REMARK   79  A    between atoms: _225  and  _226
REMARK   80  A    between atoms: _232  and  _234
REMARK   81  A    between atoms: _234  and  _235
REMARK   82  A    between atoms: _234  and  _237
REMARK   83  A    between atoms: _240  and  _242
REMARK   84  A    between atoms: _242  and  _243
REMARK   85  A    between atoms: _242  and  _245
REMARK   86  A    between atoms: _249  and  _251
REMARK   87  A    between atoms: _251  and  _252
REMARK   88  A    between atoms: _255  and  _257
REMARK   89  A    between atoms: _257  and  _258
REMARK   90  A    between atoms: _257  and  _260
REMARK   91  A    between atoms: _263  and  _265
REMARK   92  A    between atoms: _265  and  _266
REMARK   93  A    between atoms: _265  and  _268
REMARK   94  A    between atoms: _268  and  _269
REMARK   95  A    between atoms: _272  and  _274
REMARK   96  A    between atoms: _274  and  _275
REMARK   97  A    between atoms: _277  and  _279
REMARK   98  A    between atoms: _279  and  _280
REMARK   99  A    between atoms: _282  and  _284
REMARK  100  A    between atoms: _284  and  _285
REMARK  101  A    between atoms: _284  and  _287
REMARK  102  A    between atoms: _287  and  _288
REMARK  103  A    between atoms: _290  and  _292
REMARK  104  A    between atoms: _292  and  _293
REMARK  105  A    between atoms: _292  and  _295
REMARK  106  A    between atoms: _295  and  _296
REMARK  107  A    between atoms: _299  and  _301
REMARK  108  A    between atoms: _301  and  _302
REMARK  109  A    between atoms: _301  and  _304
REMARK  110  A    between atoms: _304  and  _305
REMARK  111  A    between atoms: _308  and  _310
REMARK  112  A    between atoms: _310  and  _311
REMARK  113  A    between atoms: _310  and  _313
REMARK  114  A    between atoms: _313  and  _314
REMARK  115  A    between atoms: _318  and  _319
REMARK  116  A    between atoms: _325  and  _326
REMARK  117  A    between atoms: _331  and  _333
REMARK  118  A    between atoms: _333  and  _334
REMARK  119  A    between atoms: _333  and  _336
REMARK  120  A    between atoms: _336  and  _337
REMARK  121  A    between atoms: _340  and  _342
REMARK  122  A    between atoms: _342  and  _343
REMARK  123  A    between atoms: _342  and  _345
REMARK  124  A    between atoms: _345  and  _346
REMARK  125  A    between atoms: _349  and  _351
REMARK  126  A    between atoms: _351  and  _352
REMARK  127  A    between atoms: _351  and  _354
REMARK  128  A    between atoms: _356  and  _358
REMARK  129  A    between atoms: _358  and  _359
REMARK  130  A    between atoms: _358  and  _361
REMARK  131  A    between atoms: _364  and  _366
REMARK  132  A    between atoms: _366  and  _367
REMARK  133  A    between atoms: _366  and  _369
REMARK  134  A    between atoms: _369  and  _370
REMARK  135  A    between atoms: _380  and  _382
REMARK  136  A    between atoms: _382  and  _383
REMARK  137  A    between atoms: _382  and  _385
REMARK  138  A    between atoms: _385  and  _386
REMARK  139  A    between atoms: _391  and  _393
REMARK  140  A    between atoms: _393  and  _394
REMARK  141  A    between atoms: _393  and  _396
REMARK  142  A    between atoms: _396  and  _397
REMARK  143  A    between atoms: _397  and  _398
REMARK  144  A    between atoms: _398  and  _399
REMARK                            x       y       z     vdW  Elec       q    Type
REMARK                         _______ _______ _______ _____ _____    ______ ____
ROOT
ATOM      1  CG  TRP A   1      12.214   0.183  24.210  0.00  0.00    -0.002 A 
ATOM      2  CD1 TRP A   1      13.496   0.761  24.378  0.00  0.00    +0.068 A 
ATOM      3  NE1 TRP A   1      14.190   0.743  23.184  0.00  0.00    -0.352 N 
ATOM      4  HE1 TRP A   1      15.141   1.136  23.030  0.00  0.00    +0.166 HD
ATOM      5  CE2 TRP A   1      13.409   0.113  22.221  0.00  0.00    +0.056 A 
ATOM      6  CZ2 TRP A   1      13.700  -0.164  20.867  0.00  0.00    +0.017 A 
ATOM      7  CH2 TRP A   1      12.725  -0.834  20.098  0.00  0.00    +0.001 A 
ATOM      8  CZ3 TRP A   1      11.495  -1.205  20.696  0.00  0.00    +0.000 A 
ATOM      9  CE3 TRP A   1      11.195  -0.899  22.038  0.00  0.00    +0.001 A 
ATOM     10  CD2 TRP A   1      12.179  -0.225  22.822  0.00  0.00    +0.013 A 
ENDROOT
BRANCH   1  11
ATOM     11  CB  TRP A   1      11.129   0.070  25.210  0.00  0.00    +0.053 C 
BRANCH  11  12
ATOM     12  CA  TRP A   1      10.126   1.248  24.928  0.00  0.00    +0.137 C 
BRANCH  12  13
ATOM     13  N   TRP A   1      10.543   2.464  25.653  0.00  0.00    -0.239 NA
ATOM     14  H   TRP A   1      11.114   2.383  26.519  0.00  0.00    +0.142 HD
ENDBRANCH  12  13
BRANCH  12  15
ATOM     15  C   TRP A   1       8.734   0.825  25.430  0.00  0.00    +0.224 C 
ATOM     16  O   TRP A   1       8.489   0.814  26.643  0.00  0.00    -0.287 OA
ENDBRANCH  12  15
ENDBRANCH  11  12
ENDBRANCH   1  11
TORSDOF 4
REMARK  Name = ../refined-set-2016/3s75/3s75_pocket.pdb
REMARK  144 active torsions:
REMARK  status: ('A' for Active; 'I' for Inactive)
REMARK    1  A    between atoms: _1  and  _3
REMARK    2  A    between atoms: _3  and  _4
REMARK    3  A    between atoms: _3  and  _6
REMARK    4  A    between atoms: _6  and  _7
REMARK    5  A    between atoms: _17  and  _19
REMARK    6  A    between atoms: _19  and  _20
REMARK    7  A    between atoms: _19  and  _22
REMARK    8  A    between atoms: _22  and  _23
REMARK    9  A    between atoms: _28  and  _29
REMARK   10  A    between atoms: _31  and  _33
REMARK   11  A    between atoms: _33  and  _34
REMARK   12  A    between atoms: _33  and  _36
REMARK   13  A    between atoms: _36  and  _37
REMARK   14  A    between atoms: _40  and  _41
REMARK   15  A    between atoms: _46  and  _48
REMARK   16  A    between atoms: _48  and  _49
REMARK   17  A    between atoms: _48  and  _51
REMARK   18  A    between atoms: _51  and  _52
REMARK   19  A    between atoms: _57  and  _59
REMARK   20  A    between atoms: _59  and  _60
REMARK   21  A    between atoms: _63  and  _65
REMARK   22  A    between atoms: _65  and  _66
REMARK   23  A    between atoms: _65  and  _68
REMARK   24  A    between atoms: _68  and  _69
REMARK   25  A    between atoms: _74  and  _76
REMARK   26  A    between atoms: _76  and  _77
REMARK   27  A    between atoms: _76  and  _79
REMARK   28  A    between atoms: _79  and  _80
REMARK   29  A    between atoms: _83  and  _85
REMARK   30  A    between atoms: _85  and  _86
REMARK   31  A    between atoms: _85  and  _88
REMARK   32  A    between atoms: _88  and  _89
REMARK   33  A    between atoms: _89  and  _90
REMARK   34  A    between atoms: _95  and  _97
REMARK   35  A    between atoms: _97  and  _98
REMARK   36  A    between atoms: _97  and  _100
REMARK   37  A    between atoms: _100  and  _101
REMARK   38  A    between atoms: _107  and  _109
REMARK   39  A    between atoms: _120  and  _123
REMARK   40  A    between atoms: _123  and  _124
REMARK   41  A    between atoms: _132  and  _133
REMARK   42  A    between atoms: _141  and  _143
REMARK   43  A    between atoms: _143  and  _144
REMARK   44  A    between atoms: _143  and  _146
REMARK   45  A    between atoms: _146  and  _147
REMARK   46  A    between atoms: _147  and  _148
REMARK   47  A    between atoms: _151  and  _153
REMARK   48  A    between atoms: _153  and  _154
REMARK   49  A    between atoms: _153  and  _156
REMARK   50  A    between atoms: _156  and  _157
REMARK   51  A    between atoms: _162  and  _164
REMARK   52  A    between atoms: _164  and  _165
REMARK   53  A    between atoms: _164  and  _167
REMARK   54  A    between atoms: _167  and  _168
REMARK   55  A    between atoms: _168  and  _169
REMARK   56  A    between atoms: _172  and  _174
REMARK   57  A    between atoms: _174  and  _175
REMARK   58  A    between atoms: _174  and  _177
REMARK   59  A    between atoms: _177  and  _178
REMARK   60  A    between atoms: _181  and  _183
REMARK   61  A    between atoms: _183  and  _184
REMARK   62  A    between atoms: _183  and  _186
REMARK   63  A    between atoms: _186  and  _187
REMARK   64  A    between atoms: _188  and  ZN_408
REMARK   65  A    between atoms: _192  and  _194
REMARK   66  A    between atoms: _194  and  _195
REMARK   67  A    between atoms: _194  and  _197
REMARK   68  A    between atoms: _197  and  _198
REMARK   69  A    between atoms: _201  and  _203
REMARK   70  A    between atoms: _203  and  _204
REMARK   71  A    between atoms: _203  and  _206
REMARK   72  A    between atoms: _209  and  _211
REMARK   73  A    between atoms: _211  and  _212
REMARK   74  A    between atoms: _211  and  _214
REMARK   75  A    between atoms: _214  and  _215
REMARK   76  A    between atoms: _220  and  _222
REMARK   77  A    between atoms: _222  and  _223
REMARK   78  A    between atoms: _222  and  _225
REMARK   79  A    between atoms: _225  and  _226
REMARK   80  A    between atoms: _232  and  _234
REMARK   81  A    between atoms: _234  and  _235
REMARK   82  A    between atoms: _234  and  _237
REMARK   83  A    between atoms: _240  and  _242
REMARK   84  A    between atoms: _242  and  _243
REMARK   85  A    between atoms: _242  and  _245
REMARK   86  A    between atoms: _249  and  _251
REMARK   87  A    between atoms: _251  and  _252
REMARK   88  A    between atoms: _255  and  _257
REMARK   89  A    between atoms: _257  and  _258
REMARK   90  A    between atoms: _257  and  _260
REMARK   91  A    between atoms: _263  and  _265
REMARK   92  A    between atoms: _265  and  _266
REMARK   93  A    between atoms: _265  and  _268
REMARK   94  A    between atoms: _268  and  _269
REMARK   95  A    between atoms: _272  and  _274
REMARK   96  A    between atoms: _274  and  _275
REMARK   97  A    between atoms: _277  and  _279
REMARK   98  A    between atoms: _279  and  _280
REMARK   99  A    between atoms: _282  and  _284
REMARK  100  A    between atoms: _284  and  _285
REMARK  101  A    between atoms: _284  and  _287
REMARK  102  A    between atoms: _287  and  _288
REMARK  103  A    between atoms: _290  and  _292
REMARK  104  A    between atoms: _292  and  _293
REMARK  105  A    between atoms: _292  and  _295
REMARK  106  A    between atoms: _295  and  _296
REMARK  107  A    between atoms: _299  and  _301
REMARK  108  A    between atoms: _301  and  _302
REMARK  109  A    between atoms: _301  and  _304
REMARK  110  A    between atoms: _304  and  _305
REMARK  111  A    between atoms: _308  and  _310
REMARK  112  A    between atoms: _310  and  _311
REMARK  113  A    between atoms: _310  and  _313
REMARK  114  A    between atoms: _313  and  _314
REMARK  115  A    between atoms: _318  and  _319
REMARK  116  A    between atoms: _325  and  _326
REMARK  117  A    between atoms: _331  and  _333
REMARK  118  A    between atoms: _333  and  _334
REMARK  119  A    between atoms: _333  and  _336
REMARK  120  A    between atoms: _336  and  _337
REMARK  121  A    between atoms: _340  and  _342
REMARK  122  A    between atoms: _342  and  _343
REMARK  123  A    between atoms: _342  and  _345
REMARK  124  A    between atoms: _345  and  _346
REMARK  125  A    between atoms: _349  and  _351
REMARK  126  A    between atoms: _351  and  _352
REMARK  127  A    between atoms: _351  and  _354
REMARK  128  A    between atoms: _356  and  _358
REMARK  129  A    between atoms: _358  and  _359
REMARK  130  A    between atoms: _358  and  _361
REMARK  131  A    between atoms: _364  and  _366
REMARK  132  A    between atoms: _366  and  _367
REMARK  133  A    between atoms: _366  and  _369
REMARK  134  A    between atoms: _369  and  _370
REMARK  135  A    between atoms: _380  and  _382
REMARK  136  A    between atoms: _382  and  _383
REMARK  137  A    between atoms: _382  and  _385
REMARK  138  A    between atoms: _385  and  _386
REMARK  139  A    between atoms: _391  and  _393
REMARK  140  A    between atoms: _393  and  _394
REMARK  141  A    between atoms: _393  and  _396
REMARK  142  A    between atoms: _396  and  _397
REMARK  143  A    between atoms: _397  and  _398
REMARK  144  A    between atoms: _398  and  _399
REMARK                            x       y       z     vdW  Elec       q    Type
REMARK                         _______ _______ _______ _____ _____    ______ ____
ROOT
ATOM      1  CB  ASN A   1      19.100  -7.302  10.515  0.00  0.00    +0.110 C 
ENDROOT
BRANCH   1   2
ATOM      2  CG  ASN A   1      17.588  -7.420  10.326  0.00  0.00    +0.221 C 
ATOM      3  OD1 ASN A   1      16.936  -8.294  10.902  0.00  0.00    -0.275 OA
ATOM      4  ND2 ASN A   1      17.026  -6.534   9.503  0.00  0.00    -0.329 N 
ATOM      5 HD21 ASN A   1      16.001  -6.565   9.327  0.00  0.00    +0.145 HD
ATOM      6 HD22 ASN A   1      17.612  -5.812   9.037  0.00  0.00    +0.145 HD
ENDBRANCH   1   2
BRANCH   1   7
ATOM      7  CA  ASN A   1      19.636  -8.131  11.705  0.00  0.00    +0.142 C 
BRANCH   7   8
ATOM      8  N   ASN A   1      19.318  -9.547  11.484  0.00  0.00    -0.239 NA
ATOM      9  H   ASN A   1      18.384  -9.824  11.119  0.00  0.00    +0.142 HD
ENDBRANCH   7   8
BRANCH   7  10
ATOM     10  C   ASN A   1      19.061  -7.638  13.039  0.00  0.00    +0.225 C 
ATOM     11  O   ASN A   1      18.374  -6.600  13.117  0.00  0.00    -0.287 OA
ENDBRANCH   7  10
ENDBRANCH   1   7
TORSDOF 4
REMARK  Name = ../refined-set-2016/3s75/3s75_pocket.pdb
REMARK  144 active torsions:
REMARK  status: ('A' for Active; 'I' for Inactive)
REMARK    1  A    between atoms: _1  and  _3
REMARK    2  A    between atoms: _3  and  _4
REMARK    3  A    between atoms: _3  and  _6
REMARK    4  A    between atoms: _6  and  _7
REMARK    5  A    between atoms: _17  and  _19
REMARK    6  A    between atoms: _19  and  _20
REMARK    7  A    between atoms: _19  and  _22
REMARK    8  A    between atoms: _22  and  _23
REMARK    9  A    between atoms: _28  and  _29
REMARK   10  A    between atoms: _31  and  _33
REMARK   11  A    between atoms: _33  and  _34
REMARK   12  A    between atoms: _33  and  _36
REMARK   13  A    between atoms: _36  and  _37
REMARK   14  A    between atoms: _40  and  _41
REMARK   15  A    between atoms: _46  and  _48
REMARK   16  A    between atoms: _48  and  _49
REMARK   17  A    between atoms: _48  and  _51
REMARK   18  A    between atoms: _51  and  _52
REMARK   19  A    between atoms: _57  and  _59
REMARK   20  A    between atoms: _59  and  _60
REMARK   21  A    between atoms: _63  and  _65
REMARK   22  A    between atoms: _65  and  _66
REMARK   23  A    between atoms: _65  and  _68
REMARK   24  A    between atoms: _68  and  _69
REMARK   25  A    between atoms: _74  and  _76
REMARK   26  A    between atoms: _76  and  _77
REMARK   27  A    between atoms: _76  and  _79
REMARK   28  A    between atoms: _79  and  _80
REMARK   29  A    between atoms: _83  and  _85
REMARK   30  A    between atoms: _85  and  _86
REMARK   31  A    between atoms: _85  and  _88
REMARK   32  A    between atoms: _88  and  _89
REMARK   33  A    between atoms: _89  and  _90
REMARK   34  A    between atoms: _95  and  _97
REMARK   35  A    between atoms: _97  and  _98
REMARK   36  A    between atoms: _97  and  _100
REMARK   37  A    between atoms: _100  and  _101
REMARK   38  A    between atoms: _107  and  _109
REMARK   39  A    between atoms: _120  and  _123
REMARK   40  A    between atoms: _123  and  _124
REMARK   41  A    between atoms: _132  and  _133
REMARK   42  A    between atoms: _141  and  _143
REMARK   43  A    between atoms: _143  and  _144
REMARK   44  A    between atoms: _143  and  _146
REMARK   45  A    between atoms: _146  and  _147
REMARK   46  A    between atoms: _147  and  _148
REMARK   47  A    between atoms: _151  and  _153
REMARK   48  A    between atoms: _153  and  _154
REMARK   49  A    between atoms: _153  and  _156
REMARK   50  A    between atoms: _156  and  _157
REMARK   51  A    between atoms: _162  and  _164
REMARK   52  A    between atoms: _164  and  _165
REMARK   53  A    between atoms: _164  and  _167
REMARK   54  A    between atoms: _167  and  _168
REMARK   55  A    between atoms: _168  and  _169
REMARK   56  A    between atoms: _172  and  _174
REMARK   57  A    between atoms: _174  and  _175
REMARK   58  A    between atoms: _174  and  _177
REMARK   59  A    between atoms: _177  and  _178
REMARK   60  A    between atoms: _181  and  _183
REMARK   61  A    between atoms: _183  and  _184
REMARK   62  A    between atoms: _183  and  _186
REMARK   63  A    between atoms: _186  and  _187
REMARK   64  A    between atoms: _188  and  ZN_408
REMARK   65  A    between atoms: _192  and  _194
REMARK   66  A    between atoms: _194  and  _195
REMARK   67  A    between atoms: _194  and  _197
REMARK   68  A    between atoms: _197  and  _198
REMARK   69  A    between atoms: _201  and  _203
REMARK   70  A    between atoms: _203  and  _204
REMARK   71  A    between atoms: _203  and  _206
REMARK   72  A    between atoms: _209  and  _211
REMARK   73  A    between atoms: _211  and  _212
REMARK   74  A    between atoms: _211  and  _214
REMARK   75  A    between atoms: _214  and  _215
REMARK   76  A    between atoms: _220  and  _222
REMARK   77  A    between atoms: _222  and  _223
REMARK   78  A    between atoms: _222  and  _225
REMARK   79  A    between atoms: _225  and  _226
REMARK   80  A    between atoms: _232  and  _234
REMARK   81  A    between atoms: _234  and  _235
REMARK   82  A    between atoms: _234  and  _237
REMARK   83  A    between atoms: _240  and  _242
REMARK   84  A    between atoms: _242  and  _243
REMARK   85  A    between atoms: _242  and  _245
REMARK   86  A    between atoms: _249  and  _251
REMARK   87  A    between atoms: _251  and  _252
REMARK   88  A    between atoms: _255  and  _257
REMARK   89  A    between atoms: _257  and  _258
REMARK   90  A    between atoms: _257  and  _260
REMARK   91  A    between atoms: _263  and  _265
REMARK   92  A    between atoms: _265  and  _266
REMARK   93  A    between atoms: _265  and  _268
REMARK   94  A    between atoms: _268  and  _269
REMARK   95  A    between atoms: _272  and  _274
REMARK   96  A    between atoms: _274  and  _275
REMARK   97  A    between atoms: _277  and  _279
REMARK   98  A    between atoms: _279  and  _280
REMARK   99  A    between atoms: _282  and  _284
REMARK  100  A    between atoms: _284  and  _285
REMARK  101  A    between atoms: _284  and  _287
REMARK  102  A    between atoms: _287  and  _288
REMARK  103  A    between atoms: _290  and  _292
REMARK  104  A    between atoms: _292  and  _293
REMARK  105  A    between atoms: _292  and  _295
REMARK  106  A    between atoms: _295  and  _296
REMARK  107  A    between atoms: _299  and  _301
REMARK  108  A    between atoms: _301  and  _302
REMARK  109  A    between atoms: _301  and  _304
REMARK  110  A    between atoms: _304  and  _305
REMARK  111  A    between atoms: _308  and  _310
REMARK  112  A    between atoms: _310  and  _311
REMARK  113  A    between atoms: _310  and  _313
REMARK  114  A    between atoms: _313  and  _314
REMARK  115  A    between atoms: _318  and  _319
REMARK  116  A    between atoms: _325  and  _326
REMARK  117  A    between atoms: _331  and  _333
REMARK  118  A    between atoms: _333  and  _334
REMARK  119  A    between atoms: _333  and  _336
REMARK  120  A    between atoms: _336  and  _337
REMARK  121  A    between atoms: _340  and  _342
REMARK  122  A    between atoms: _342  and  _343
REMARK  123  A    between atoms: _342  and  _345
REMARK  124  A    between atoms: _345  and  _346
REMARK  125  A    between atoms: _349  and  _351
REMARK  126  A    between atoms: _351  and  _352
REMARK  127  A    between atoms: _351  and  _354
REMARK  128  A    between atoms: _356  and  _358
REMARK  129  A    between atoms: _358  and  _359
REMARK  130  A    between atoms: _358  and  _361
REMARK  131  A    between atoms: _364  and  _366
REMARK  132  A    between atoms: _366  and  _367
REMARK  133  A    between atoms: _366  and  _369
REMARK  134  A    between atoms: _369  and  _370
REMARK  135  A    between atoms: _380  and  _382
REMARK  136  A    between atoms: _382  and  _383
REMARK  137  A    between atoms: _382  and  _385
REMARK  138  A    between atoms: _385  and  _386
REMARK  139  A    between atoms: _391  and  _393
REMARK  140  A    between atoms: _393  and  _394
REMARK  141  A    between atoms: _393  and  _396
REMARK  142  A    between atoms: _396  and  _397
REMARK  143  A    between atoms: _397  and  _398
REMARK  144  A    between atoms: _398  and  _399
REMARK                            x       y       z     vdW  Elec       q    Type
REMARK                         _______ _______ _______ _____ _____    ______ ____
ROOT
ATOM      1  NE  ARG A   1      23.258  -3.653  21.205  0.00  0.00    -0.265 N 
ATOM      2  CZ  ARG A   1      23.472  -2.627  22.052  0.00  0.00    +0.342 C 
ATOM      3  NH2 ARG A   1      24.686  -2.424  22.571  0.00  0.00    -0.292 N 
ATOM      4 HH21 ARG A   1      24.846  -1.631  23.224  0.00  0.00    +0.255 HD
ATOM      5 HH22 ARG A   1      25.471  -3.059  22.322  0.00  0.00    +0.255 HD
ATOM      6  NH1 ARG A   1      22.472  -1.808  22.419  0.00  0.00    -0.292 N 
ATOM      7 HH11 ARG A   1      22.658  -1.022  23.074  0.00  0.00    +0.255 HD
ATOM      8 HH12 ARG A   1      21.512  -1.960  22.048  0.00  0.00    +0.255 HD
ATOM      9  HE  ARG A   1      24.050  -4.299  21.013  0.00  0.00    +0.259 HD
ENDROOT
BRANCH   1  10
ATOM     10  CD  ARG A   1      21.962  -3.922  20.527  0.00  0.00    +0.174 C 
BRANCH  10  11
ATOM     11  CG  ARG A   1      22.098  -5.268  19.846  0.00  0.00    +0.045 C 
BRANCH  11  12
ATOM     12  CB  ARG A   1      20.959  -5.586  18.862  0.00  0.00    +0.029 C 
BRANCH  12  13
ATOM     13  CA  ARG A   1      20.936  -7.036  18.389  0.00  0.00    +0.133 C 
BRANCH  13  14
ATOM     14  N   ARG A   1      19.945  -7.134  17.275  0.00  0.00    -0.239 NA
ATOM     15  H   ARG A   1      19.153  -6.461  17.227  0.00  0.00    +0.142 HD
ENDBRANCH  13  14
BRANCH  13  16
ATOM     16  C   ARG A   1      20.460  -7.918  19.547  0.00  0.00    +0.224 C 
ATOM     17  O   ARG A   1      19.268  -7.919  19.864  0.00  0.00    -0.287 OA
ENDBRANCH  13  16
ENDBRANCH  12  13
ENDBRANCH  11  12
ENDBRANCH  10  11
ENDBRANCH   1  10
TORSDOF 6
REMARK  Name = ../refined-set-2016/3s75/3s75_pocket.pdb
REMARK  144 active torsions:
REMARK  status: ('A' for Active; 'I' for Inactive)
REMARK    1  A    between atoms: _1  and  _3
REMARK    2  A    between atoms: _3  and  _4
REMARK    3  A    between atoms: _3  and  _6
REMARK    4  A    between atoms: _6  and  _7
REMARK    5  A    between atoms: _17  and  _19
REMARK    6  A    between atoms: _19  and  _20
REMARK    7  A    between atoms: _19  and  _22
REMARK    8  A    between atoms: _22  and  _23
REMARK    9  A    between atoms: _28  and  _29
REMARK   10  A    between atoms: _31  and  _33
REMARK   11  A    between atoms: _33  and  _34
REMARK   12  A    between atoms: _33  and  _36
REMARK   13  A    between atoms: _36  and  _37
REMARK   14  A    between atoms: _40  and  _41
REMARK   15  A    between atoms: _46  and  _48
REMARK   16  A    between atoms: _48  and  _49
REMARK   17  A    between atoms: _48  and  _51
REMARK   18  A    between atoms: _51  and  _52
REMARK   19  A    between atoms: _57  and  _59
REMARK   20  A    between atoms: _59  and  _60
REMARK   21  A    between atoms: _63  and  _65
REMARK   22  A    between atoms: _65  and  _66
REMARK   23  A    between atoms: _65  and  _68
REMARK   24  A    between atoms: _68  and  _69
REMARK   25  A    between atoms: _74  and  _76
REMARK   26  A    between atoms: _76  and  _77
REMARK   27  A    between atoms: _76  and  _79
REMARK   28  A    between atoms: _79  and  _80
REMARK   29  A    between atoms: _83  and  _85
REMARK   30  A    between atoms: _85  and  _86
REMARK   31  A    between atoms: _85  and  _88
REMARK   32  A    between atoms: _88  and  _89
REMARK   33  A    between atoms: _89  and  _90
REMARK   34  A    between atoms: _95  and  _97
REMARK   35  A    between atoms: _97  and  _98
REMARK   36  A    between atoms: _97  and  _100
REMARK   37  A    between atoms: _100  and  _101
REMARK   38  A    between atoms: _107  and  _109
REMARK   39  A    between atoms: _120  and  _123
REMARK   40  A    between atoms: _123  and  _124
REMARK   41  A    between atoms: _132  and  _133
REMARK   42  A    between atoms: _141  and  _143
REMARK   43  A    between atoms: _143  and  _144
REMARK   44  A    between atoms: _143  and  _146
REMARK   45  A    between atoms: _146  and  _147
REMARK   46  A    between atoms: _147  and  _148
REMARK   47  A    between atoms: _151  and  _153
REMARK   48  A    between atoms: _153  and  _154
REMARK   49  A    between atoms: _153  and  _156
REMARK   50  A    between atoms: _156  and  _157
REMARK   51  A    between atoms: _162  and  _164
REMARK   52  A    between atoms: _164  and  _165
REMARK   53  A    between atoms: _164  and  _167
REMARK   54  A    between atoms: _167  and  _168
REMARK   55  A    between atoms: _168  and  _169
REMARK   56  A    between atoms: _172  and  _174
REMARK   57  A    between atoms: _174  and  _175
REMARK   58  A    between atoms: _174  and  _177
REMARK   59  A    between atoms: _177  and  _178
REMARK   60  A    between atoms: _181  and  _183
REMARK   61  A    between atoms: _183  and  _184
REMARK   62  A    between atoms: _183  and  _186
REMARK   63  A    between atoms: _186  and  _187
REMARK   64  A    between atoms: _188  and  ZN_408
REMARK   65  A    between atoms: _192  and  _194
REMARK   66  A    between atoms: _194  and  _195
REMARK   67  A    between atoms: _194  and  _197
REMARK   68  A    between atoms: _197  and  _198
REMARK   69  A    between atoms: _201  and  _203
REMARK   70  A    between atoms: _203  and  _204
REMARK   71  A    between atoms: _203  and  _206
REMARK   72  A    between atoms: _209  and  _211
REMARK   73  A    between atoms: _211  and  _212
REMARK   74  A    between atoms: _211  and  _214
REMARK   75  A    between atoms: _214  and  _215
REMARK   76  A    between atoms: _220  and  _222
REMARK   77  A    between atoms: _222  and  _223
REMARK   78  A    between atoms: _222  and  _225
REMARK   79  A    between atoms: _225  and  _226
REMARK   80  A    between atoms: _232  and  _234
REMARK   81  A    between atoms: _234  and  _235
REMARK   82  A    between atoms: _234  and  _237
REMARK   83  A    between atoms: _240  and  _242
REMARK   84  A    between atoms: _242  and  _243
REMARK   85  A    between atoms: _242  and  _245
REMARK   86  A    between atoms: _249  and  _251
REMARK   87  A    between atoms: _251  and  _252
REMARK   88  A    between atoms: _255  and  _257
REMARK   89  A    between atoms: _257  and  _258
REMARK   90  A    between atoms: _257  and  _260
REMARK   91  A    between atoms: _263  and  _265
REMARK   92  A    between atoms: _265  and  _266
REMARK   93  A    between atoms: _265  and  _268
REMARK   94  A    between atoms: _268  and  _269
REMARK   95  A    between atoms: _272  and  _274
REMARK   96  A    between atoms: _274  and  _275
REMARK   97  A    between atoms: _277  and  _279
REMARK   98  A    between atoms: _279  and  _280
REMARK   99  A    between atoms: _282  and  _284
REMARK  100  A    between atoms: _284  and  _285
REMARK  101  A    between atoms: _284  and  _287
REMARK  102  A    between atoms: _287  and  _288
REMARK  103  A    between atoms: _290  and  _292
REMARK  104  A    between atoms: _292  and  _293
REMARK  105  A    between atoms: _292  and  _295
REMARK  106  A    between atoms: _295  and  _296
REMARK  107  A    between atoms: _299  and  _301
REMARK  108  A    between atoms: _301  and  _302
REMARK  109  A    between atoms: _301  and  _304
REMARK  110  A    between atoms: _304  and  _305
REMARK  111  A    between atoms: _308  and  _310
REMARK  112  A    between atoms: _310  and  _311
REMARK  113  A    between atoms: _310  and  _313
REMARK  114  A    between atoms: _313  and  _314
REMARK  115  A    between atoms: _318  and  _319
REMARK  116  A    between atoms: _325  and  _326
REMARK  117  A    between atoms: _331  and  _333
REMARK  118  A    between atoms: _333  and  _334
REMARK  119  A    between atoms: _333  and  _336
REMARK  120  A    between atoms: _336  and  _337
REMARK  121  A    between atoms: _340  and  _342
REMARK  122  A    between atoms: _342  and  _343
REMARK  123  A    between atoms: _342  and  _345
REMARK  124  A    between atoms: _345  and  _346
REMARK  125  A    between atoms: _349  and  _351
REMARK  126  A    between atoms: _351  and  _352
REMARK  127  A    between atoms: _351  and  _354
REMARK  128  A    between atoms: _356  and  _358
REMARK  129  A    between atoms: _358  and  _359
REMARK  130  A    between atoms: _358  and  _361
REMARK  131  A    between atoms: _364  and  _366
REMARK  132  A    between atoms: _366  and  _367
REMARK  133  A    between atoms: _366  and  _369
REMARK  134  A    between atoms: _369  and  _370
REMARK  135  A    between atoms: _380  and  _382
REMARK  136  A    between atoms: _382  and  _383
REMARK  137  A    between atoms: _382  and  _385
REMARK  138  A    between atoms: _385  and  _386
REMARK  139  A    between atoms: _391  and  _393
REMARK  140  A    between atoms: _393  and  _394
REMARK  141  A    between atoms: _393  and  _396
REMARK  142  A    between atoms: _396  and  _397
REMARK  143  A    between atoms: _397  and  _398
REMARK  144  A    between atoms: _398  and  _399
REMARK                            x       y       z     vdW  Elec       q    Type
REMARK                         _______ _______ _______ _____ _____    ______ ____
ROOT
ATOM      1  O   HOH     1      19.841  -3.956  15.896  0.00  0.00    +0.000 OA
ENDROOT
TORSDOF 0
REMARK  Name = ../refined-set-2016/3s75/3s75_pocket.pdb
REMARK  144 active torsions:
REMARK  status: ('A' for Active; 'I' for Inactive)
REMARK    1  A    between atoms: _1  and  _3
REMARK    2  A    between atoms: _3  and  _4
REMARK    3  A    between atoms: _3  and  _6
REMARK    4  A    between atoms: _6  and  _7
REMARK    5  A    between atoms: _17  and  _19
REMARK    6  A    between atoms: _19  and  _20
REMARK    7  A    between atoms: _19  and  _22
REMARK    8  A    between atoms: _22  and  _23
REMARK    9  A    between atoms: _28  and  _29
REMARK   10  A    between atoms: _31  and  _33
REMARK   11  A    between atoms: _33  and  _34
REMARK   12  A    between atoms: _33  and  _36
REMARK   13  A    between atoms: _36  and  _37
REMARK   14  A    between atoms: _40  and  _41
REMARK   15  A    between atoms: _46  and  _48
REMARK   16  A    between atoms: _48  and  _49
REMARK   17  A    between atoms: _48  and  _51
REMARK   18  A    between atoms: _51  and  _52
REMARK   19  A    between atoms: _57  and  _59
REMARK   20  A    between atoms: _59  and  _60
REMARK   21  A    between atoms: _63  and  _65
REMARK   22  A    between atoms: _65  and  _66
REMARK   23  A    between atoms: _65  and  _68
REMARK   24  A    between atoms: _68  and  _69
REMARK   25  A    between atoms: _74  and  _76
REMARK   26  A    between atoms: _76  and  _77
REMARK   27  A    between atoms: _76  and  _79
REMARK   28  A    between atoms: _79  and  _80
REMARK   29  A    between atoms: _83  and  _85
REMARK   30  A    between atoms: _85  and  _86
REMARK   31  A    between atoms: _85  and  _88
REMARK   32  A    between atoms: _88  and  _89
REMARK   33  A    between atoms: _89  and  _90
REMARK   34  A    between atoms: _95  and  _97
REMARK   35  A    between atoms: _97  and  _98
REMARK   36  A    between atoms: _97  and  _100
REMARK   37  A    between atoms: _100  and  _101
REMARK   38  A    between atoms: _107  and  _109
REMARK   39  A    between atoms: _120  and  _123
REMARK   40  A    between atoms: _123  and  _124
REMARK   41  A    between atoms: _132  and  _133
REMARK   42  A    between atoms: _141  and  _143
REMARK   43  A    between atoms: _143  and  _144
REMARK   44  A    between atoms: _143  and  _146
REMARK   45  A    between atoms: _146  and  _147
REMARK   46  A    between atoms: _147  and  _148
REMARK   47  A    between atoms: _151  and  _153
REMARK   48  A    between atoms: _153  and  _154
REMARK   49  A    between atoms: _153  and  _156
REMARK   50  A    between atoms: _156  and  _157
REMARK   51  A    between atoms: _162  and  _164
REMARK   52  A    between atoms: _164  and  _165
REMARK   53  A    between atoms: _164  and  _167
REMARK   54  A    between atoms: _167  and  _168
REMARK   55  A    between atoms: _168  and  _169
REMARK   56  A    between atoms: _172  and  _174
REMARK   57  A    between atoms: _174  and  _175
REMARK   58  A    between atoms: _174  and  _177
REMARK   59  A    between atoms: _177  and  _178
REMARK   60  A    between atoms: _181  and  _183
REMARK   61  A    between atoms: _183  and  _184
REMARK   62  A    between atoms: _183  and  _186
REMARK   63  A    between atoms: _186  and  _187
REMARK   64  A    between atoms: _188  and  ZN_408
REMARK   65  A    between atoms: _192  and  _194
REMARK   66  A    between atoms: _194  and  _195
REMARK   67  A    between atoms: _194  and  _197
REMARK   68  A    between atoms: _197  and  _198
REMARK   69  A    between atoms: _201  and  _203
REMARK   70  A    between atoms: _203  and  _204
REMARK   71  A    between atoms: _203  and  _206
REMARK   72  A    between atoms: _209  and  _211
REMARK   73  A    between atoms: _211  and  _212
REMARK   74  A    between atoms: _211  and  _214
REMARK   75  A    between atoms: _214  and  _215
REMARK   76  A    between atoms: _220  and  _222
REMARK   77  A    between atoms: _222  and  _223
REMARK   78  A    between atoms: _222  and  _225
REMARK   79  A    between atoms: _225  and  _226
REMARK   80  A    between atoms: _232  and  _234
REMARK   81  A    between atoms: _234  and  _235
REMARK   82  A    between atoms: _234  and  _237
REMARK   83  A    between atoms: _240  and  _242
REMARK   84  A    between atoms: _242  and  _243
REMARK   85  A    between atoms: _242  and  _245
REMARK   86  A    between atoms: _249  and  _251
REMARK   87  A    between atoms: _251  and  _252
REMARK   88  A    between atoms: _255  and  _257
REMARK   89  A    between atoms: _257  and  _258
REMARK   90  A    between atoms: _257  and  _260
REMARK   91  A    between atoms: _263  and  _265
REMARK   92  A    between atoms: _265  and  _266
REMARK   93  A    between atoms: _265  and  _268
REMARK   94  A    between atoms: _268  and  _269
REMARK   95  A    between atoms: _272  and  _274
REMARK   96  A    between atoms: _274  and  _275
REMARK   97  A    between atoms: _277  and  _279
REMARK   98  A    between atoms: _279  and  _280
REMARK   99  A    between atoms: _282  and  _284
REMARK  100  A    between atoms: _284  and  _285
REMARK  101  A    between atoms: _284  and  _287
REMARK  102  A    between atoms: _287  and  _288
REMARK  103  A    between atoms: _290  and  _292
REMARK  104  A    between atoms: _292  and  _293
REMARK  105  A    between atoms: _292  and  _295
REMARK  106  A    between atoms: _295  and  _296
REMARK  107  A    between atoms: _299  and  _301
REMARK  108  A    between atoms: _301  and  _302
REMARK  109  A    between atoms: _301  and  _304
REMARK  110  A    between atoms: _304  and  _305
REMARK  111  A    between atoms: _308  and  _310
REMARK  112  A    between atoms: _310  and  _311
REMARK  113  A    between atoms: _310  and  _313
REMARK  114  A    between atoms: _313  and  _314
REMARK  115  A    between atoms: _318  and  _319
REMARK  116  A    between atoms: _325  and  _326
REMARK  117  A    between atoms: _331  and  _333
REMARK  118  A    between atoms: _333  and  _334
REMARK  119  A    between atoms: _333  and  _336
REMARK  120  A    between atoms: _336  and  _337
REMARK  121  A    between atoms: _340  and  _342
REMARK  122  A    between atoms: _342  and  _343
REMARK  123  A    between atoms: _342  and  _345
REMARK  124  A    between atoms: _345  and  _346
REMARK  125  A    between atoms: _349  and  _351
REMARK  126  A    between atoms: _351  and  _352
REMARK  127  A    between atoms: _351  and  _354
REMARK  128  A    between atoms: _356  and  _358
REMARK  129  A    between atoms: _358  and  _359
REMARK  130  A    between atoms: _358  and  _361
REMARK  131  A    between atoms: _364  and  _366
REMARK  132  A    between atoms: _366  and  _367
REMARK  133  A    between atoms: _366  and  _369
REMARK  134  A    between atoms: _369  and  _370
REMARK  135  A    between atoms: _380  and  _382
REMARK  136  A    between atoms: _382  and  _383
REMARK  137  A    between atoms: _382  and  _385
REMARK  138  A    between atoms: _385  and  _386
REMARK  139  A    between atoms: _391  and  _393
REMARK  140  A    between atoms: _393  and  _394
REMARK  141  A    between atoms: _393  and  _396
REMARK  142  A    between atoms: _396  and  _397
REMARK  143  A    between atoms: _397  and  _398
REMARK  144  A    between atoms: _398  and  _399
REMARK                            x       y       z     vdW  Elec       q    Type
REMARK                         _______ _______ _______ _____ _____    ______ ____
ROOT
ATOM      1  O   HOH     1      17.042   0.501  13.791  0.00  0.00    +0.000 OA
ENDROOT
TORSDOF 0
REMARK  Name = ../refined-set-2016/3s75/3s75_pocket.pdb
REMARK  144 active torsions:
REMARK  status: ('A' for Active; 'I' for Inactive)
REMARK    1  A    between atoms: _1  and  _3
REMARK    2  A    between atoms: _3  and  _4
REMARK    3  A    between atoms: _3  and  _6
REMARK    4  A    between atoms: _6  and  _7
REMARK    5  A    between atoms: _17  and  _19
REMARK    6  A    between atoms: _19  and  _20
REMARK    7  A    between atoms: _19  and  _22
REMARK    8  A    between atoms: _22  and  _23
REMARK    9  A    between atoms: _28  and  _29
REMARK   10  A    between atoms: _31  and  _33
REMARK   11  A    between atoms: _33  and  _34
REMARK   12  A    between atoms: _33  and  _36
REMARK   13  A    between atoms: _36  and  _37
REMARK   14  A    between atoms: _40  and  _41
REMARK   15  A    between atoms: _46  and  _48
REMARK   16  A    between atoms: _48  and  _49
REMARK   17  A    between atoms: _48  and  _51
REMARK   18  A    between atoms: _51  and  _52
REMARK   19  A    between atoms: _57  and  _59
REMARK   20  A    between atoms: _59  and  _60
REMARK   21  A    between atoms: _63  and  _65
REMARK   22  A    between atoms: _65  and  _66
REMARK   23  A    between atoms: _65  and  _68
REMARK   24  A    between atoms: _68  and  _69
REMARK   25  A    between atoms: _74  and  _76
REMARK   26  A    between atoms: _76  and  _77
REMARK   27  A    between atoms: _76  and  _79
REMARK   28  A    between atoms: _79  and  _80
REMARK   29  A    between atoms: _83  and  _85
REMARK   30  A    between atoms: _85  and  _86
REMARK   31  A    between atoms: _85  and  _88
REMARK   32  A    between atoms: _88  and  _89
REMARK   33  A    between atoms: _89  and  _90
REMARK   34  A    between atoms: _95  and  _97
REMARK   35  A    between atoms: _97  and  _98
REMARK   36  A    between atoms: _97  and  _100
REMARK   37  A    between atoms: _100  and  _101
REMARK   38  A    between atoms: _107  and  _109
REMARK   39  A    between atoms: _120  and  _123
REMARK   40  A    between atoms: _123  and  _124
REMARK   41  A    between atoms: _132  and  _133
REMARK   42  A    between atoms: _141  and  _143
REMARK   43  A    between atoms: _143  and  _144
REMARK   44  A    between atoms: _143  and  _146
REMARK   45  A    between atoms: _146  and  _147
REMARK   46  A    between atoms: _147  and  _148
REMARK   47  A    between atoms: _151  and  _153
REMARK   48  A    between atoms: _153  and  _154
REMARK   49  A    between atoms: _153  and  _156
REMARK   50  A    between atoms: _156  and  _157
REMARK   51  A    between atoms: _162  and  _164
REMARK   52  A    between atoms: _164  and  _165
REMARK   53  A    between atoms: _164  and  _167
REMARK   54  A    between atoms: _167  and  _168
REMARK   55  A    between atoms: _168  and  _169
REMARK   56  A    between atoms: _172  and  _174
REMARK   57  A    between atoms: _174  and  _175
REMARK   58  A    between atoms: _174  and  _177
REMARK   59  A    between atoms: _177  and  _178
REMARK   60  A    between atoms: _181  and  _183
REMARK   61  A    between atoms: _183  and  _184
REMARK   62  A    between atoms: _183  and  _186
REMARK   63  A    between atoms: _186  and  _187
REMARK   64  A    between atoms: _188  and  ZN_408
REMARK   65  A    between atoms: _192  and  _194
REMARK   66  A    between atoms: _194  and  _195
REMARK   67  A    between atoms: _194  and  _197
REMARK   68  A    between atoms: _197  and  _198
REMARK   69  A    between atoms: _201  and  _203
REMARK   70  A    between atoms: _203  and  _204
REMARK   71  A    between atoms: _203  and  _206
REMARK   72  A    between atoms: _209  and  _211
REMARK   73  A    between atoms: _211  and  _212
REMARK   74  A    between atoms: _211  and  _214
REMARK   75  A    between atoms: _214  and  _215
REMARK   76  A    between atoms: _220  and  _222
REMARK   77  A    between atoms: _222  and  _223
REMARK   78  A    between atoms: _222  and  _225
REMARK   79  A    between atoms: _225  and  _226
REMARK   80  A    between atoms: _232  and  _234
REMARK   81  A    between atoms: _234  and  _235
REMARK   82  A    between atoms: _234  and  _237
REMARK   83  A    between atoms: _240  and  _242
REMARK   84  A    between atoms: _242  and  _243
REMARK   85  A    between atoms: _242  and  _245
REMARK   86  A    between atoms: _249  and  _251
REMARK   87  A    between atoms: _251  and  _252
REMARK   88  A    between atoms: _255  and  _257
REMARK   89  A    between atoms: _257  and  _258
REMARK   90  A    between atoms: _257  and  _260
REMARK   91  A    between atoms: _263  and  _265
REMARK   92  A    between atoms: _265  and  _266
REMARK   93  A    between atoms: _265  and  _268
REMARK   94  A    between atoms: _268  and  _269
REMARK   95  A    between atoms: _272  and  _274
REMARK   96  A    between atoms: _274  and  _275
REMARK   97  A    between atoms: _277  and  _279
REMARK   98  A    between atoms: _279  and  _280
REMARK   99  A    between atoms: _282  and  _284
REMARK  100  A    between atoms: _284  and  _285
REMARK  101  A    between atoms: _284  and  _287
REMARK  102  A    between atoms: _287  and  _288
REMARK  103  A    between atoms: _290  and  _292
REMARK  104  A    between atoms: _292  and  _293
REMARK  105  A    between atoms: _292  and  _295
REMARK  106  A    between atoms: _295  and  _296
REMARK  107  A    between atoms: _299  and  _301
REMARK  108  A    between atoms: _301  and  _302
REMARK  109  A    between atoms: _301  and  _304
REMARK  110  A    between atoms: _304  and  _305
REMARK  111  A    between atoms: _308  and  _310
REMARK  112  A    between atoms: _310  and  _311
REMARK  113  A    between atoms: _310  and  _313
REMARK  114  A    between atoms: _313  and  _314
REMARK  115  A    between atoms: _318  and  _319
REMARK  116  A    between atoms: _325  and  _326
REMARK  117  A    between atoms: _331  and  _333
REMARK  118  A    between atoms: _333  and  _334
REMARK  119  A    between atoms: _333  and  _336
REMARK  120  A    between atoms: _336  and  _337
REMARK  121  A    between atoms: _340  and  _342
REMARK  122  A    between atoms: _342  and  _343
REMARK  123  A    between atoms: _342  and  _345
REMARK  124  A    between atoms: _345  and  _346
REMARK  125  A    between atoms: _349  and  _351
REMARK  126  A    between atoms: _351  and  _352
REMARK  127  A    between atoms: _351  and  _354
REMARK  128  A    between atoms: _356  and  _358
REMARK  129  A    between atoms: _358  and  _359
REMARK  130  A    between atoms: _358  and  _361
REMARK  131  A    between atoms: _364  and  _366
REMARK  132  A    between atoms: _366  and  _367
REMARK  133  A    between atoms: _366  and  _369
REMARK  134  A    between atoms: _369  and  _370
REMARK  135  A    between atoms: _380  and  _382
REMARK  136  A    between atoms: _382  and  _383
REMARK  137  A    between atoms: _382  and  _385
REMARK  138  A    between atoms: _385  and  _386
REMARK  139  A    between atoms: _391  and  _393
REMARK  140  A    between atoms: _393  and  _394
REMARK  141  A    between atoms: _393  and  _396
REMARK  142  A    between atoms: _396  and  _397
REMARK  143  A    between atoms: _397  and  _398
REMARK  144  A    between atoms: _398  and  _399
REMARK                            x       y       z     vdW  Elec       q    Type
REMARK                         _______ _______ _______ _____ _____    ______ ____
ROOT
ATOM      1  O   HOH     1      18.483  -3.432  11.547  0.00  0.00    +0.000 OA
ENDROOT
TORSDOF 0
REMARK  Name = ../refined-set-2016/3s75/3s75_pocket.pdb
REMARK  144 active torsions:
REMARK  status: ('A' for Active; 'I' for Inactive)
REMARK    1  A    between atoms: _1  and  _3
REMARK    2  A    between atoms: _3  and  _4
REMARK    3  A    between atoms: _3  and  _6
REMARK    4  A    between atoms: _6  and  _7
REMARK    5  A    between atoms: _17  and  _19
REMARK    6  A    between atoms: _19  and  _20
REMARK    7  A    between atoms: _19  and  _22
REMARK    8  A    between atoms: _22  and  _23
REMARK    9  A    between atoms: _28  and  _29
REMARK   10  A    between atoms: _31  and  _33
REMARK   11  A    between atoms: _33  and  _34
REMARK   12  A    between atoms: _33  and  _36
REMARK   13  A    between atoms: _36  and  _37
REMARK   14  A    between atoms: _40  and  _41
REMARK   15  A    between atoms: _46  and  _48
REMARK   16  A    between atoms: _48  and  _49
REMARK   17  A    between atoms: _48  and  _51
REMARK   18  A    between atoms: _51  and  _52
REMARK   19  A    between atoms: _57  and  _59
REMARK   20  A    between atoms: _59  and  _60
REMARK   21  A    between atoms: _63  and  _65
REMARK   22  A    between atoms: _65  and  _66
REMARK   23  A    between atoms: _65  and  _68
REMARK   24  A    between atoms: _68  and  _69
REMARK   25  A    between atoms: _74  and  _76
REMARK   26  A    between atoms: _76  and  _77
REMARK   27  A    between atoms: _76  and  _79
REMARK   28  A    between atoms: _79  and  _80
REMARK   29  A    between atoms: _83  and  _85
REMARK   30  A    between atoms: _85  and  _86
REMARK   31  A    between atoms: _85  and  _88
REMARK   32  A    between atoms: _88  and  _89
REMARK   33  A    between atoms: _89  and  _90
REMARK   34  A    between atoms: _95  and  _97
REMARK   35  A    between atoms: _97  and  _98
REMARK   36  A    between atoms: _97  and  _100
REMARK   37  A    between atoms: _100  and  _101
REMARK   38  A    between atoms: _107  and  _109
REMARK   39  A    between atoms: _120  and  _123
REMARK   40  A    between atoms: _123  and  _124
REMARK   41  A    between atoms: _132  and  _133
REMARK   42  A    between atoms: _141  and  _143
REMARK   43  A    between atoms: _143  and  _144
REMARK   44  A    between atoms: _143  and  _146
REMARK   45  A    between atoms: _146  and  _147
REMARK   46  A    between atoms: _147  and  _148
REMARK   47  A    between atoms: _151  and  _153
REMARK   48  A    between atoms: _153  and  _154
REMARK   49  A    between atoms: _153  and  _156
REMARK   50  A    between atoms: _156  and  _157
REMARK   51  A    between atoms: _162  and  _164
REMARK   52  A    between atoms: _164  and  _165
REMARK   53  A    between atoms: _164  and  _167
REMARK   54  A    between atoms: _167  and  _168
REMARK   55  A    between atoms: _168  and  _169
REMARK   56  A    between atoms: _172  and  _174
REMARK   57  A    between atoms: _174  and  _175
REMARK   58  A    between atoms: _174  and  _177
REMARK   59  A    between atoms: _177  and  _178
REMARK   60  A    between atoms: _181  and  _183
REMARK   61  A    between atoms: _183  and  _184
REMARK   62  A    between atoms: _183  and  _186
REMARK   63  A    between atoms: _186  and  _187
REMARK   64  A    between atoms: _188  and  ZN_408
REMARK   65  A    between atoms: _192  and  _194
REMARK   66  A    between atoms: _194  and  _195
REMARK   67  A    between atoms: _194  and  _197
REMARK   68  A    between atoms: _197  and  _198
REMARK   69  A    between atoms: _201  and  _203
REMARK   70  A    between atoms: _203  and  _204
REMARK   71  A    between atoms: _203  and  _206
REMARK   72  A    between atoms: _209  and  _211
REMARK   73  A    between atoms: _211  and  _212
REMARK   74  A    between atoms: _211  and  _214
REMARK   75  A    between atoms: _214  and  _215
REMARK   76  A    between atoms: _220  and  _222
REMARK   77  A    between atoms: _222  and  _223
REMARK   78  A    between atoms: _222  and  _225
REMARK   79  A    between atoms: _225  and  _226
REMARK   80  A    between atoms: _232  and  _234
REMARK   81  A    between atoms: _234  and  _235
REMARK   82  A    between atoms: _234  and  _237
REMARK   83  A    between atoms: _240  and  _242
REMARK   84  A    between atoms: _242  and  _243
REMARK   85  A    between atoms: _242  and  _245
REMARK   86  A    between atoms: _249  and  _251
REMARK   87  A    between atoms: _251  and  _252
REMARK   88  A    between atoms: _255  and  _257
REMARK   89  A    between atoms: _257  and  _258
REMARK   90  A    between atoms: _257  and  _260
REMARK   91  A    between atoms: _263  and  _265
REMARK   92  A    between atoms: _265  and  _266
REMARK   93  A    between atoms: _265  and  _268
REMARK   94  A    between atoms: _268  and  _269
REMARK   95  A    between atoms: _272  and  _274
REMARK   96  A    between atoms: _274  and  _275
REMARK   97  A    between atoms: _277  and  _279
REMARK   98  A    between atoms: _279  and  _280
REMARK   99  A    between atoms: _282  and  _284
REMARK  100  A    between atoms: _284  and  _285
REMARK  101  A    between atoms: _284  and  _287
REMARK  102  A    between atoms: _287  and  _288
REMARK  103  A    between atoms: _290  and  _292
REMARK  104  A    between atoms: _292  and  _293
REMARK  105  A    between atoms: _292  and  _295
REMARK  106  A    between atoms: _295  and  _296
REMARK  107  A    between atoms: _299  and  _301
REMARK  108  A    between atoms: _301  and  _302
REMARK  109  A    between atoms: _301  and  _304
REMARK  110  A    between atoms: _304  and  _305
REMARK  111  A    between atoms: _308  and  _310
REMARK  112  A    between atoms: _310  and  _311
REMARK  113  A    between atoms: _310  and  _313
REMARK  114  A    between atoms: _313  and  _314
REMARK  115  A    between atoms: _318  and  _319
REMARK  116  A    between atoms: _325  and  _326
REMARK  117  A    between atoms: _331  and  _333
REMARK  118  A    between atoms: _333  and  _334
REMARK  119  A    between atoms: _333  and  _336
REMARK  120  A    between atoms: _336  and  _337
REMARK  121  A    between atoms: _340  and  _342
REMARK  122  A    between atoms: _342  and  _343
REMARK  123  A    between atoms: _342  and  _345
REMARK  124  A    between atoms: _345  and  _346
REMARK  125  A    between atoms: _349  and  _351
REMARK  126  A    between atoms: _351  and  _352
REMARK  127  A    between atoms: _351  and  _354
REMARK  128  A    between atoms: _356  and  _358
REMARK  129  A    between atoms: _358  and  _359
REMARK  130  A    between atoms: _358  and  _361
REMARK  131  A    between atoms: _364  and  _366
REMARK  132  A    between atoms: _366  and  _367
REMARK  133  A    between atoms: _366  and  _369
REMARK  134  A    between atoms: _369  and  _370
REMARK  135  A    between atoms: _380  and  _382
REMARK  136  A    between atoms: _382  and  _383
REMARK  137  A    between atoms: _382  and  _385
REMARK  138  A    between atoms: _385  and  _386
REMARK  139  A    between atoms: _391  and  _393
REMARK  140  A    between atoms: _393  and  _394
REMARK  141  A    between atoms: _393  and  _396
REMARK  142  A    between atoms: _396  and  _397
REMARK  143  A    between atoms: _397  and  _398
REMARK  144  A    between atoms: _398  and  _399
REMARK                            x       y       z     vdW  Elec       q    Type
REMARK                         _______ _______ _______ _____ _____    ______ ____
ROOT
ATOM      1  O   HOH     1      15.699   2.287  12.126  0.00  0.00    +0.000 OA
ENDROOT
TORSDOF 0
REMARK  Name = ../refined-set-2016/3s75/3s75_pocket.pdb
REMARK  144 active torsions:
REMARK  status: ('A' for Active; 'I' for Inactive)
REMARK    1  A    between atoms: _1  and  _3
REMARK    2  A    between atoms: _3  and  _4
REMARK    3  A    between atoms: _3  and  _6
REMARK    4  A    between atoms: _6  and  _7
REMARK    5  A    between atoms: _17  and  _19
REMARK    6  A    between atoms: _19  and  _20
REMARK    7  A    between atoms: _19  and  _22
REMARK    8  A    between atoms: _22  and  _23
REMARK    9  A    between atoms: _28  and  _29
REMARK   10  A    between atoms: _31  and  _33
REMARK   11  A    between atoms: _33  and  _34
REMARK   12  A    between atoms: _33  and  _36
REMARK   13  A    between atoms: _36  and  _37
REMARK   14  A    between atoms: _40  and  _41
REMARK   15  A    between atoms: _46  and  _48
REMARK   16  A    between atoms: _48  and  _49
REMARK   17  A    between atoms: _48  and  _51
REMARK   18  A    between atoms: _51  and  _52
REMARK   19  A    between atoms: _57  and  _59
REMARK   20  A    between atoms: _59  and  _60
REMARK   21  A    between atoms: _63  and  _65
REMARK   22  A    between atoms: _65  and  _66
REMARK   23  A    between atoms: _65  and  _68
REMARK   24  A    between atoms: _68  and  _69
REMARK   25  A    between atoms: _74  and  _76
REMARK   26  A    between atoms: _76  and  _77
REMARK   27  A    between atoms: _76  and  _79
REMARK   28  A    between atoms: _79  and  _80
REMARK   29  A    between atoms: _83  and  _85
REMARK   30  A    between atoms: _85  and  _86
REMARK   31  A    between atoms: _85  and  _88
REMARK   32  A    between atoms: _88  and  _89
REMARK   33  A    between atoms: _89  and  _90
REMARK   34  A    between atoms: _95  and  _97
REMARK   35  A    between atoms: _97  and  _98
REMARK   36  A    between atoms: _97  and  _100
REMARK   37  A    between atoms: _100  and  _101
REMARK   38  A    between atoms: _107  and  _109
REMARK   39  A    between atoms: _120  and  _123
REMARK   40  A    between atoms: _123  and  _124
REMARK   41  A    between atoms: _132  and  _133
REMARK   42  A    between atoms: _141  and  _143
REMARK   43  A    between atoms: _143  and  _144
REMARK   44  A    between atoms: _143  and  _146
REMARK   45  A    between atoms: _146  and  _147
REMARK   46  A    between atoms: _147  and  _148
REMARK   47  A    between atoms: _151  and  _153
REMARK   48  A    between atoms: _153  and  _154
REMARK   49  A    between atoms: _153  and  _156
REMARK   50  A    between atoms: _156  and  _157
REMARK   51  A    between atoms: _162  and  _164
REMARK   52  A    between atoms: _164  and  _165
REMARK   53  A    between atoms: _164  and  _167
REMARK   54  A    between atoms: _167  and  _168
REMARK   55  A    between atoms: _168  and  _169
REMARK   56  A    between atoms: _172  and  _174
REMARK   57  A    between atoms: _174  and  _175
REMARK   58  A    between atoms: _174  and  _177
REMARK   59  A    between atoms: _177  and  _178
REMARK   60  A    between atoms: _181  and  _183
REMARK   61  A    between atoms: _183  and  _184
REMARK   62  A    between atoms: _183  and  _186
REMARK   63  A    between atoms: _186  and  _187
REMARK   64  A    between atoms: _188  and  ZN_408
REMARK   65  A    between atoms: _192  and  _194
REMARK   66  A    between atoms: _194  and  _195
REMARK   67  A    between atoms: _194  and  _197
REMARK   68  A    between atoms: _197  and  _198
REMARK   69  A    between atoms: _201  and  _203
REMARK   70  A    between atoms: _203  and  _204
REMARK   71  A    between atoms: _203  and  _206
REMARK   72  A    between atoms: _209  and  _211
REMARK   73  A    between atoms: _211  and  _212
REMARK   74  A    between atoms: _211  and  _214
REMARK   75  A    between atoms: _214  and  _215
REMARK   76  A    between atoms: _220  and  _222
REMARK   77  A    between atoms: _222  and  _223
REMARK   78  A    between atoms: _222  and  _225
REMARK   79  A    between atoms: _225  and  _226
REMARK   80  A    between atoms: _232  and  _234
REMARK   81  A    between atoms: _234  and  _235
REMARK   82  A    between atoms: _234  and  _237
REMARK   83  A    between atoms: _240  and  _242
REMARK   84  A    between atoms: _242  and  _243
REMARK   85  A    between atoms: _242  and  _245
REMARK   86  A    between atoms: _249  and  _251
REMARK   87  A    between atoms: _251  and  _252
REMARK   88  A    between atoms: _255  and  _257
REMARK   89  A    between atoms: _257  and  _258
REMARK   90  A    between atoms: _257  and  _260
REMARK   91  A    between atoms: _263  and  _265
REMARK   92  A    between atoms: _265  and  _266
REMARK   93  A    between atoms: _265  and  _268
REMARK   94  A    between atoms: _268  and  _269
REMARK   95  A    between atoms: _272  and  _274
REMARK   96  A    between atoms: _274  and  _275
REMARK   97  A    between atoms: _277  and  _279
REMARK   98  A    between atoms: _279  and  _280
REMARK   99  A    between atoms: _282  and  _284
REMARK  100  A    between atoms: _284  and  _285
REMARK  101  A    between atoms: _284  and  _287
REMARK  102  A    between atoms: _287  and  _288
REMARK  103  A    between atoms: _290  and  _292
REMARK  104  A    between atoms: _292  and  _293
REMARK  105  A    between atoms: _292  and  _295
REMARK  106  A    between atoms: _295  and  _296
REMARK  107  A    between atoms: _299  and  _301
REMARK  108  A    between atoms: _301  and  _302
REMARK  109  A    between atoms: _301  and  _304
REMARK  110  A    between atoms: _304  and  _305
REMARK  111  A    between atoms: _308  and  _310
REMARK  112  A    between atoms: _310  and  _311
REMARK  113  A    between atoms: _310  and  _313
REMARK  114  A    between atoms: _313  and  _314
REMARK  115  A    between atoms: _318  and  _319
REMARK  116  A    between atoms: _325  and  _326
REMARK  117  A    between atoms: _331  and  _333
REMARK  118  A    between atoms: _333  and  _334
REMARK  119  A    between atoms: _333  and  _336
REMARK  120  A    between atoms: _336  and  _337
REMARK  121  A    between atoms: _340  and  _342
REMARK  122  A    between atoms: _342  and  _343
REMARK  123  A    between atoms: _342  and  _345
REMARK  124  A    between atoms: _345  and  _346
REMARK  125  A    between atoms: _349  and  _351
REMARK  126  A    between atoms: _351  and  _352
REMARK  127  A    between atoms: _351  and  _354
REMARK  128  A    between atoms: _356  and  _358
REMARK  129  A    between atoms: _358  and  _359
REMARK  130  A    between atoms: _358  and  _361
REMARK  131  A    between atoms: _364  and  _366
REMARK  132  A    between atoms: _366  and  _367
REMARK  133  A    between atoms: _366  and  _369
REMARK  134  A    between atoms: _369  and  _370
REMARK  135  A    between atoms: _380  and  _382
REMARK  136  A    between atoms: _382  and  _383
REMARK  137  A    between atoms: _382  and  _385
REMARK  138  A    between atoms: _385  and  _386
REMARK  139  A    between atoms: _391  and  _393
REMARK  140  A    between atoms: _393  and  _394
REMARK  141  A    between atoms: _393  and  _396
REMARK  142  A    between atoms: _396  and  _397
REMARK  143  A    between atoms: _397  and  _398
REMARK  144  A    between atoms: _398  and  _399
REMARK                            x       y       z     vdW  Elec       q    Type
REMARK                         _______ _______ _______ _____ _____    ______ ____
ROOT
ATOM      1  O   HOH     1      16.079   0.756   9.909  0.00  0.00    +0.000 OA
ENDROOT
TORSDOF 0
REMARK  Name = ../refined-set-2016/3s75/3s75_pocket.pdb
REMARK  144 active torsions:
REMARK  status: ('A' for Active; 'I' for Inactive)
REMARK    1  A    between atoms: _1  and  _3
REMARK    2  A    between atoms: _3  and  _4
REMARK    3  A    between atoms: _3  and  _6
REMARK    4  A    between atoms: _6  and  _7
REMARK    5  A    between atoms: _17  and  _19
REMARK    6  A    between atoms: _19  and  _20
REMARK    7  A    between atoms: _19  and  _22
REMARK    8  A    between atoms: _22  and  _23
REMARK    9  A    between atoms: _28  and  _29
REMARK   10  A    between atoms: _31  and  _33
REMARK   11  A    between atoms: _33  and  _34
REMARK   12  A    between atoms: _33  and  _36
REMARK   13  A    between atoms: _36  and  _37
REMARK   14  A    between atoms: _40  and  _41
REMARK   15  A    between atoms: _46  and  _48
REMARK   16  A    between atoms: _48  and  _49
REMARK   17  A    between atoms: _48  and  _51
REMARK   18  A    between atoms: _51  and  _52
REMARK   19  A    between atoms: _57  and  _59
REMARK   20  A    between atoms: _59  and  _60
REMARK   21  A    between atoms: _63  and  _65
REMARK   22  A    between atoms: _65  and  _66
REMARK   23  A    between atoms: _65  and  _68
REMARK   24  A    between atoms: _68  and  _69
REMARK   25  A    between atoms: _74  and  _76
REMARK   26  A    between atoms: _76  and  _77
REMARK   27  A    between atoms: _76  and  _79
REMARK   28  A    between atoms: _79  and  _80
REMARK   29  A    between atoms: _83  and  _85
REMARK   30  A    between atoms: _85  and  _86
REMARK   31  A    between atoms: _85  and  _88
REMARK   32  A    between atoms: _88  and  _89
REMARK   33  A    between atoms: _89  and  _90
REMARK   34  A    between atoms: _95  and  _97
REMARK   35  A    between atoms: _97  and  _98
REMARK   36  A    between atoms: _97  and  _100
REMARK   37  A    between atoms: _100  and  _101
REMARK   38  A    between atoms: _107  and  _109
REMARK   39  A    between atoms: _120  and  _123
REMARK   40  A    between atoms: _123  and  _124
REMARK   41  A    between atoms: _132  and  _133
REMARK   42  A    between atoms: _141  and  _143
REMARK   43  A    between atoms: _143  and  _144
REMARK   44  A    between atoms: _143  and  _146
REMARK   45  A    between atoms: _146  and  _147
REMARK   46  A    between atoms: _147  and  _148
REMARK   47  A    between atoms: _151  and  _153
REMARK   48  A    between atoms: _153  and  _154
REMARK   49  A    between atoms: _153  and  _156
REMARK   50  A    between atoms: _156  and  _157
REMARK   51  A    between atoms: _162  and  _164
REMARK   52  A    between atoms: _164  and  _165
REMARK   53  A    between atoms: _164  and  _167
REMARK   54  A    between atoms: _167  and  _168
REMARK   55  A    between atoms: _168  and  _169
REMARK   56  A    between atoms: _172  and  _174
REMARK   57  A    between atoms: _174  and  _175
REMARK   58  A    between atoms: _174  and  _177
REMARK   59  A    between atoms: _177  and  _178
REMARK   60  A    between atoms: _181  and  _183
REMARK   61  A    between atoms: _183  and  _184
REMARK   62  A    between atoms: _183  and  _186
REMARK   63  A    between atoms: _186  and  _187
REMARK   64  A    between atoms: _188  and  ZN_408
REMARK   65  A    between atoms: _192  and  _194
REMARK   66  A    between atoms: _194  and  _195
REMARK   67  A    between atoms: _194  and  _197
REMARK   68  A    between atoms: _197  and  _198
REMARK   69  A    between atoms: _201  and  _203
REMARK   70  A    between atoms: _203  and  _204
REMARK   71  A    between atoms: _203  and  _206
REMARK   72  A    between atoms: _209  and  _211
REMARK   73  A    between atoms: _211  and  _212
REMARK   74  A    between atoms: _211  and  _214
REMARK   75  A    between atoms: _214  and  _215
REMARK   76  A    between atoms: _220  and  _222
REMARK   77  A    between atoms: _222  and  _223
REMARK   78  A    between atoms: _222  and  _225
REMARK   79  A    between atoms: _225  and  _226
REMARK   80  A    between atoms: _232  and  _234
REMARK   81  A    between atoms: _234  and  _235
REMARK   82  A    between atoms: _234  and  _237
REMARK   83  A    between atoms: _240  and  _242
REMARK   84  A    between atoms: _242  and  _243
REMARK   85  A    between atoms: _242  and  _245
REMARK   86  A    between atoms: _249  and  _251
REMARK   87  A    between atoms: _251  and  _252
REMARK   88  A    between atoms: _255  and  _257
REMARK   89  A    between atoms: _257  and  _258
REMARK   90  A    between atoms: _257  and  _260
REMARK   91  A    between atoms: _263  and  _265
REMARK   92  A    between atoms: _265  and  _266
REMARK   93  A    between atoms: _265  and  _268
REMARK   94  A    between atoms: _268  and  _269
REMARK   95  A    between atoms: _272  and  _274
REMARK   96  A    between atoms: _274  and  _275
REMARK   97  A    between atoms: _277  and  _279
REMARK   98  A    between atoms: _279  and  _280
REMARK   99  A    between atoms: _282  and  _284
REMARK  100  A    between atoms: _284  and  _285
REMARK  101  A    between atoms: _284  and  _287
REMARK  102  A    between atoms: _287  and  _288
REMARK  103  A    between atoms: _290  and  _292
REMARK  104  A    between atoms: _292  and  _293
REMARK  105  A    between atoms: _292  and  _295
REMARK  106  A    between atoms: _295  and  _296
REMARK  107  A    between atoms: _299  and  _301
REMARK  108  A    between atoms: _301  and  _302
REMARK  109  A    between atoms: _301  and  _304
REMARK  110  A    between atoms: _304  and  _305
REMARK  111  A    between atoms: _308  and  _310
REMARK  112  A    between atoms: _310  and  _311
REMARK  113  A    between atoms: _310  and  _313
REMARK  114  A    between atoms: _313  and  _314
REMARK  115  A    between atoms: _318  and  _319
REMARK  116  A    between atoms: _325  and  _326
REMARK  117  A    between atoms: _331  and  _333
REMARK  118  A    between atoms: _333  and  _334
REMARK  119  A    between atoms: _333  and  _336
REMARK  120  A    between atoms: _336  and  _337
REMARK  121  A    between atoms: _340  and  _342
REMARK  122  A    between atoms: _342  and  _343
REMARK  123  A    between atoms: _342  and  _345
REMARK  124  A    between atoms: _345  and  _346
REMARK  125  A    between atoms: _349  and  _351
REMARK  126  A    between atoms: _351  and  _352
REMARK  127  A    between atoms: _351  and  _354
REMARK  128  A    between atoms: _356  and  _358
REMARK  129  A    between atoms: _358  and  _359
REMARK  130  A    between atoms: _358  and  _361
REMARK  131  A    between atoms: _364  and  _366
REMARK  132  A    between atoms: _366  and  _367
REMARK  133  A    between atoms: _366  and  _369
REMARK  134  A    between atoms: _369  and  _370
REMARK  135  A    between atoms: _380  and  _382
REMARK  136  A    between atoms: _382  and  _383
REMARK  137  A    between atoms: _382  and  _385
REMARK  138  A    between atoms: _385  and  _386
REMARK  139  A    between atoms: _391  and  _393
REMARK  140  A    between atoms: _393  and  _394
REMARK  141  A    between atoms: _393  and  _396
REMARK  142  A    between atoms: _396  and  _397
REMARK  143  A    between atoms: _397  and  _398
REMARK  144  A    between atoms: _398  and  _399
REMARK                            x       y       z     vdW  Elec       q    Type
REMARK                         _______ _______ _______ _____ _____    ______ ____
ROOT
ATOM      1  O   HOH     1      17.341  -0.970  11.513  0.00  0.00    +0.000 OA
ENDROOT
TORSDOF 0
REMARK  Name = ../refined-set-2016/3s75/3s75_pocket.pdb
REMARK  144 active torsions:
REMARK  status: ('A' for Active; 'I' for Inactive)
REMARK    1  A    between atoms: _1  and  _3
REMARK    2  A    between atoms: _3  and  _4
REMARK    3  A    between atoms: _3  and  _6
REMARK    4  A    between atoms: _6  and  _7
REMARK    5  A    between atoms: _17  and  _19
REMARK    6  A    between atoms: _19  and  _20
REMARK    7  A    between atoms: _19  and  _22
REMARK    8  A    between atoms: _22  and  _23
REMARK    9  A    between atoms: _28  and  _29
REMARK   10  A    between atoms: _31  and  _33
REMARK   11  A    between atoms: _33  and  _34
REMARK   12  A    between atoms: _33  and  _36
REMARK   13  A    between atoms: _36  and  _37
REMARK   14  A    between atoms: _40  and  _41
REMARK   15  A    between atoms: _46  and  _48
REMARK   16  A    between atoms: _48  and  _49
REMARK   17  A    between atoms: _48  and  _51
REMARK   18  A    between atoms: _51  and  _52
REMARK   19  A    between atoms: _57  and  _59
REMARK   20  A    between atoms: _59  and  _60
REMARK   21  A    between atoms: _63  and  _65
REMARK   22  A    between atoms: _65  and  _66
REMARK   23  A    between atoms: _65  and  _68
REMARK   24  A    between atoms: _68  and  _69
REMARK   25  A    between atoms: _74  and  _76
REMARK   26  A    between atoms: _76  and  _77
REMARK   27  A    between atoms: _76  and  _79
REMARK   28  A    between atoms: _79  and  _80
REMARK   29  A    between atoms: _83  and  _85
REMARK   30  A    between atoms: _85  and  _86
REMARK   31  A    between atoms: _85  and  _88
REMARK   32  A    between atoms: _88  and  _89
REMARK   33  A    between atoms: _89  and  _90
REMARK   34  A    between atoms: _95  and  _97
REMARK   35  A    between atoms: _97  and  _98
REMARK   36  A    between atoms: _97  and  _100
REMARK   37  A    between atoms: _100  and  _101
REMARK   38  A    between atoms: _107  and  _109
REMARK   39  A    between atoms: _120  and  _123
REMARK   40  A    between atoms: _123  and  _124
REMARK   41  A    between atoms: _132  and  _133
REMARK   42  A    between atoms: _141  and  _143
REMARK   43  A    between atoms: _143  and  _144
REMARK   44  A    between atoms: _143  and  _146
REMARK   45  A    between atoms: _146  and  _147
REMARK   46  A    between atoms: _147  and  _148
REMARK   47  A    between atoms: _151  and  _153
REMARK   48  A    between atoms: _153  and  _154
REMARK   49  A    between atoms: _153  and  _156
REMARK   50  A    between atoms: _156  and  _157
REMARK   51  A    between atoms: _162  and  _164
REMARK   52  A    between atoms: _164  and  _165
REMARK   53  A    between atoms: _164  and  _167
REMARK   54  A    between atoms: _167  and  _168
REMARK   55  A    between atoms: _168  and  _169
REMARK   56  A    between atoms: _172  and  _174
REMARK   57  A    between atoms: _174  and  _175
REMARK   58  A    between atoms: _174  and  _177
REMARK   59  A    between atoms: _177  and  _178
REMARK   60  A    between atoms: _181  and  _183
REMARK   61  A    between atoms: _183  and  _184
REMARK   62  A    between atoms: _183  and  _186
REMARK   63  A    between atoms: _186  and  _187
REMARK   64  A    between atoms: _188  and  ZN_408
REMARK   65  A    between atoms: _192  and  _194
REMARK   66  A    between atoms: _194  and  _195
REMARK   67  A    between atoms: _194  and  _197
REMARK   68  A    between atoms: _197  and  _198
REMARK   69  A    between atoms: _201  and  _203
REMARK   70  A    between atoms: _203  and  _204
REMARK   71  A    between atoms: _203  and  _206
REMARK   72  A    between atoms: _209  and  _211
REMARK   73  A    between atoms: _211  and  _212
REMARK   74  A    between atoms: _211  and  _214
REMARK   75  A    between atoms: _214  and  _215
REMARK   76  A    between atoms: _220  and  _222
REMARK   77  A    between atoms: _222  and  _223
REMARK   78  A    between atoms: _222  and  _225
REMARK   79  A    between atoms: _225  and  _226
REMARK   80  A    between atoms: _232  and  _234
REMARK   81  A    between atoms: _234  and  _235
REMARK   82  A    between atoms: _234  and  _237
REMARK   83  A    between atoms: _240  and  _242
REMARK   84  A    between atoms: _242  and  _243
REMARK   85  A    between atoms: _242  and  _245
REMARK   86  A    between atoms: _249  and  _251
REMARK   87  A    between atoms: _251  and  _252
REMARK   88  A    between atoms: _255  and  _257
REMARK   89  A    between atoms: _257  and  _258
REMARK   90  A    between atoms: _257  and  _260
REMARK   91  A    between atoms: _263  and  _265
REMARK   92  A    between atoms: _265  and  _266
REMARK   93  A    between atoms: _265  and  _268
REMARK   94  A    between atoms: _268  and  _269
REMARK   95  A    between atoms: _272  and  _274
REMARK   96  A    between atoms: _274  and  _275
REMARK   97  A    between atoms: _277  and  _279
REMARK   98  A    between atoms: _279  and  _280
REMARK   99  A    between atoms: _282  and  _284
REMARK  100  A    between atoms: _284  and  _285
REMARK  101  A    between atoms: _284  and  _287
REMARK  102  A    between atoms: _287  and  _288
REMARK  103  A    between atoms: _290  and  _292
REMARK  104  A    between atoms: _292  and  _293
REMARK  105  A    between atoms: _292  and  _295
REMARK  106  A    between atoms: _295  and  _296
REMARK  107  A    between atoms: _299  and  _301
REMARK  108  A    between atoms: _301  and  _302
REMARK  109  A    between atoms: _301  and  _304
REMARK  110  A    between atoms: _304  and  _305
REMARK  111  A    between atoms: _308  and  _310
REMARK  112  A    between atoms: _310  and  _311
REMARK  113  A    between atoms: _310  and  _313
REMARK  114  A    between atoms: _313  and  _314
REMARK  115  A    between atoms: _318  and  _319
REMARK  116  A    between atoms: _325  and  _326
REMARK  117  A    between atoms: _331  and  _333
REMARK  118  A    between atoms: _333  and  _334
REMARK  119  A    between atoms: _333  and  _336
REMARK  120  A    between atoms: _336  and  _337
REMARK  121  A    between atoms: _340  and  _342
REMARK  122  A    between atoms: _342  and  _343
REMARK  123  A    between atoms: _342  and  _345
REMARK  124  A    between atoms: _345  and  _346
REMARK  125  A    between atoms: _349  and  _351
REMARK  126  A    between atoms: _351  and  _352
REMARK  127  A    between atoms: _351  and  _354
REMARK  128  A    between atoms: _356  and  _358
REMARK  129  A    between atoms: _358  and  _359
REMARK  130  A    between atoms: _358  and  _361
REMARK  131  A    between atoms: _364  and  _366
REMARK  132  A    between atoms: _366  and  _367
REMARK  133  A    between atoms: _366  and  _369
REMARK  134  A    between atoms: _369  and  _370
REMARK  135  A    between atoms: _380  and  _382
REMARK  136  A    between atoms: _382  and  _383
REMARK  137  A    between atoms: _382  and  _385
REMARK  138  A    between atoms: _385  and  _386
REMARK  139  A    between atoms: _391  and  _393
REMARK  140  A    between atoms: _393  and  _394
REMARK  141  A    between atoms: _393  and  _396
REMARK  142  A    between atoms: _396  and  _397
REMARK  143  A    between atoms: _397  and  _398
REMARK  144  A    between atoms: _398  and  _399
REMARK                            x       y       z     vdW  Elec       q    Type
REMARK                         _______ _______ _______ _____ _____    ______ ____
ROOT
ATOM      1  O   HOH     1      20.311   3.805  13.678  0.00  0.00    +0.000 OA
ENDROOT
TORSDOF 0
REMARK  Name = ../refined-set-2016/3s75/3s75_pocket.pdb
REMARK  144 active torsions:
REMARK  status: ('A' for Active; 'I' for Inactive)
REMARK    1  A    between atoms: _1  and  _3
REMARK    2  A    between atoms: _3  and  _4
REMARK    3  A    between atoms: _3  and  _6
REMARK    4  A    between atoms: _6  and  _7
REMARK    5  A    between atoms: _17  and  _19
REMARK    6  A    between atoms: _19  and  _20
REMARK    7  A    between atoms: _19  and  _22
REMARK    8  A    between atoms: _22  and  _23
REMARK    9  A    between atoms: _28  and  _29
REMARK   10  A    between atoms: _31  and  _33
REMARK   11  A    between atoms: _33  and  _34
REMARK   12  A    between atoms: _33  and  _36
REMARK   13  A    between atoms: _36  and  _37
REMARK   14  A    between atoms: _40  and  _41
REMARK   15  A    between atoms: _46  and  _48
REMARK   16  A    between atoms: _48  and  _49
REMARK   17  A    between atoms: _48  and  _51
REMARK   18  A    between atoms: _51  and  _52
REMARK   19  A    between atoms: _57  and  _59
REMARK   20  A    between atoms: _59  and  _60
REMARK   21  A    between atoms: _63  and  _65
REMARK   22  A    between atoms: _65  and  _66
REMARK   23  A    between atoms: _65  and  _68
REMARK   24  A    between atoms: _68  and  _69
REMARK   25  A    between atoms: _74  and  _76
REMARK   26  A    between atoms: _76  and  _77
REMARK   27  A    between atoms: _76  and  _79
REMARK   28  A    between atoms: _79  and  _80
REMARK   29  A    between atoms: _83  and  _85
REMARK   30  A    between atoms: _85  and  _86
REMARK   31  A    between atoms: _85  and  _88
REMARK   32  A    between atoms: _88  and  _89
REMARK   33  A    between atoms: _89  and  _90
REMARK   34  A    between atoms: _95  and  _97
REMARK   35  A    between atoms: _97  and  _98
REMARK   36  A    between atoms: _97  and  _100
REMARK   37  A    between atoms: _100  and  _101
REMARK   38  A    between atoms: _107  and  _109
REMARK   39  A    between atoms: _120  and  _123
REMARK   40  A    between atoms: _123  and  _124
REMARK   41  A    between atoms: _132  and  _133
REMARK   42  A    between atoms: _141  and  _143
REMARK   43  A    between atoms: _143  and  _144
REMARK   44  A    between atoms: _143  and  _146
REMARK   45  A    between atoms: _146  and  _147
REMARK   46  A    between atoms: _147  and  _148
REMARK   47  A    between atoms: _151  and  _153
REMARK   48  A    between atoms: _153  and  _154
REMARK   49  A    between atoms: _153  and  _156
REMARK   50  A    between atoms: _156  and  _157
REMARK   51  A    between atoms: _162  and  _164
REMARK   52  A    between atoms: _164  and  _165
REMARK   53  A    between atoms: _164  and  _167
REMARK   54  A    between atoms: _167  and  _168
REMARK   55  A    between atoms: _168  and  _169
REMARK   56  A    between atoms: _172  and  _174
REMARK   57  A    between atoms: _174  and  _175
REMARK   58  A    between atoms: _174  and  _177
REMARK   59  A    between atoms: _177  and  _178
REMARK   60  A    between atoms: _181  and  _183
REMARK   61  A    between atoms: _183  and  _184
REMARK   62  A    between atoms: _183  and  _186
REMARK   63  A    between atoms: _186  and  _187
REMARK   64  A    between atoms: _188  and  ZN_408
REMARK   65  A    between atoms: _192  and  _194
REMARK   66  A    between atoms: _194  and  _195
REMARK   67  A    between atoms: _194  and  _197
REMARK   68  A    between atoms: _197  and  _198
REMARK   69  A    between atoms: _201  and  _203
REMARK   70  A    between atoms: _203  and  _204
REMARK   71  A    between atoms: _203  and  _206
REMARK   72  A    between atoms: _209  and  _211
REMARK   73  A    between atoms: _211  and  _212
REMARK   74  A    between atoms: _211  and  _214
REMARK   75  A    between atoms: _214  and  _215
REMARK   76  A    between atoms: _220  and  _222
REMARK   77  A    between atoms: _222  and  _223
REMARK   78  A    between atoms: _222  and  _225
REMARK   79  A    between atoms: _225  and  _226
REMARK   80  A    between atoms: _232  and  _234
REMARK   81  A    between atoms: _234  and  _235
REMARK   82  A    between atoms: _234  and  _237
REMARK   83  A    between atoms: _240  and  _242
REMARK   84  A    between atoms: _242  and  _243
REMARK   85  A    between atoms: _242  and  _245
REMARK   86  A    between atoms: _249  and  _251
REMARK   87  A    between atoms: _251  and  _252
REMARK   88  A    between atoms: _255  and  _257
REMARK   89  A    between atoms: _257  and  _258
REMARK   90  A    between atoms: _257  and  _260
REMARK   91  A    between atoms: _263  and  _265
REMARK   92  A    between atoms: _265  and  _266
REMARK   93  A    between atoms: _265  and  _268
REMARK   94  A    between atoms: _268  and  _269
REMARK   95  A    between atoms: _272  and  _274
REMARK   96  A    between atoms: _274  and  _275
REMARK   97  A    between atoms: _277  and  _279
REMARK   98  A    between atoms: _279  and  _280
REMARK   99  A    between atoms: _282  and  _284
REMARK  100  A    between atoms: _284  and  _285
REMARK  101  A    between atoms: _284  and  _287
REMARK  102  A    between atoms: _287  and  _288
REMARK  103  A    between atoms: _290  and  _292
REMARK  104  A    between atoms: _292  and  _293
REMARK  105  A    between atoms: _292  and  _295
REMARK  106  A    between atoms: _295  and  _296
REMARK  107  A    between atoms: _299  and  _301
REMARK  108  A    between atoms: _301  and  _302
REMARK  109  A    between atoms: _301  and  _304
REMARK  110  A    between atoms: _304  and  _305
REMARK  111  A    between atoms: _308  and  _310
REMARK  112  A    between atoms: _310  and  _311
REMARK  113  A    between atoms: _310  and  _313
REMARK  114  A    between atoms: _313  and  _314
REMARK  115  A    between atoms: _318  and  _319
REMARK  116  A    between atoms: _325  and  _326
REMARK  117  A    between atoms: _331  and  _333
REMARK  118  A    between atoms: _333  and  _334
REMARK  119  A    between atoms: _333  and  _336
REMARK  120  A    between atoms: _336  and  _337
REMARK  121  A    between atoms: _340  and  _342
REMARK  122  A    between atoms: _342  and  _343
REMARK  123  A    between atoms: _342  and  _345
REMARK  124  A    between atoms: _345  and  _346
REMARK  125  A    between atoms: _349  and  _351
REMARK  126  A    between atoms: _351  and  _352
REMARK  127  A    between atoms: _351  and  _354
REMARK  128  A    between atoms: _356  and  _358
REMARK  129  A    between atoms: _358  and  _359
REMARK  130  A    between atoms: _358  and  _361
REMARK  131  A    between atoms: _364  and  _366
REMARK  132  A    between atoms: _366  and  _367
REMARK  133  A    between atoms: _366  and  _369
REMARK  134  A    between atoms: _369  and  _370
REMARK  135  A    between atoms: _380  and  _382
REMARK  136  A    between atoms: _382  and  _383
REMARK  137  A    between atoms: _382  and  _385
REMARK  138  A    between atoms: _385  and  _386
REMARK  139  A    between atoms: _391  and  _393
REMARK  140  A    between atoms: _393  and  _394
REMARK  141  A    between atoms: _393  and  _396
REMARK  142  A    between atoms: _396  and  _397
REMARK  143  A    between atoms: _397  and  _398
REMARK  144  A    between atoms: _398  and  _399
REMARK                            x       y       z     vdW  Elec       q    Type
REMARK                         _______ _______ _______ _____ _____    ______ ____
ROOT
ATOM      1  O   HOH     1      19.196   6.551  14.151  0.00  0.00    +0.000 OA
ENDROOT
TORSDOF 0
REMARK  Name = ../refined-set-2016/3s75/3s75_pocket.pdb
REMARK  144 active torsions:
REMARK  status: ('A' for Active; 'I' for Inactive)
REMARK    1  A    between atoms: _1  and  _3
REMARK    2  A    between atoms: _3  and  _4
REMARK    3  A    between atoms: _3  and  _6
REMARK    4  A    between atoms: _6  and  _7
REMARK    5  A    between atoms: _17  and  _19
REMARK    6  A    between atoms: _19  and  _20
REMARK    7  A    between atoms: _19  and  _22
REMARK    8  A    between atoms: _22  and  _23
REMARK    9  A    between atoms: _28  and  _29
REMARK   10  A    between atoms: _31  and  _33
REMARK   11  A    between atoms: _33  and  _34
REMARK   12  A    between atoms: _33  and  _36
REMARK   13  A    between atoms: _36  and  _37
REMARK   14  A    between atoms: _40  and  _41
REMARK   15  A    between atoms: _46  and  _48
REMARK   16  A    between atoms: _48  and  _49
REMARK   17  A    between atoms: _48  and  _51
REMARK   18  A    between atoms: _51  and  _52
REMARK   19  A    between atoms: _57  and  _59
REMARK   20  A    between atoms: _59  and  _60
REMARK   21  A    between atoms: _63  and  _65
REMARK   22  A    between atoms: _65  and  _66
REMARK   23  A    between atoms: _65  and  _68
REMARK   24  A    between atoms: _68  and  _69
REMARK   25  A    between atoms: _74  and  _76
REMARK   26  A    between atoms: _76  and  _77
REMARK   27  A    between atoms: _76  and  _79
REMARK   28  A    between atoms: _79  and  _80
REMARK   29  A    between atoms: _83  and  _85
REMARK   30  A    between atoms: _85  and  _86
REMARK   31  A    between atoms: _85  and  _88
REMARK   32  A    between atoms: _88  and  _89
REMARK   33  A    between atoms: _89  and  _90
REMARK   34  A    between atoms: _95  and  _97
REMARK   35  A    between atoms: _97  and  _98
REMARK   36  A    between atoms: _97  and  _100
REMARK   37  A    between atoms: _100  and  _101
REMARK   38  A    between atoms: _107  and  _109
REMARK   39  A    between atoms: _120  and  _123
REMARK   40  A    between atoms: _123  and  _124
REMARK   41  A    between atoms: _132  and  _133
REMARK   42  A    between atoms: _141  and  _143
REMARK   43  A    between atoms: _143  and  _144
REMARK   44  A    between atoms: _143  and  _146
REMARK   45  A    between atoms: _146  and  _147
REMARK   46  A    between atoms: _147  and  _148
REMARK   47  A    between atoms: _151  and  _153
REMARK   48  A    between atoms: _153  and  _154
REMARK   49  A    between atoms: _153  and  _156
REMARK   50  A    between atoms: _156  and  _157
REMARK   51  A    between atoms: _162  and  _164
REMARK   52  A    between atoms: _164  and  _165
REMARK   53  A    between atoms: _164  and  _167
REMARK   54  A    between atoms: _167  and  _168
REMARK   55  A    between atoms: _168  and  _169
REMARK   56  A    between atoms: _172  and  _174
REMARK   57  A    between atoms: _174  and  _175
REMARK   58  A    between atoms: _174  and  _177
REMARK   59  A    between atoms: _177  and  _178
REMARK   60  A    between atoms: _181  and  _183
REMARK   61  A    between atoms: _183  and  _184
REMARK   62  A    between atoms: _183  and  _186
REMARK   63  A    between atoms: _186  and  _187
REMARK   64  A    between atoms: _188  and  ZN_408
REMARK   65  A    between atoms: _192  and  _194
REMARK   66  A    between atoms: _194  and  _195
REMARK   67  A    between atoms: _194  and  _197
REMARK   68  A    between atoms: _197  and  _198
REMARK   69  A    between atoms: _201  and  _203
REMARK   70  A    between atoms: _203  and  _204
REMARK   71  A    between atoms: _203  and  _206
REMARK   72  A    between atoms: _209  and  _211
REMARK   73  A    between atoms: _211  and  _212
REMARK   74  A    between atoms: _211  and  _214
REMARK   75  A    between atoms: _214  and  _215
REMARK   76  A    between atoms: _220  and  _222
REMARK   77  A    between atoms: _222  and  _223
REMARK   78  A    between atoms: _222  and  _225
REMARK   79  A    between atoms: _225  and  _226
REMARK   80  A    between atoms: _232  and  _234
REMARK   81  A    between atoms: _234  and  _235
REMARK   82  A    between atoms: _234  and  _237
REMARK   83  A    between atoms: _240  and  _242
REMARK   84  A    between atoms: _242  and  _243
REMARK   85  A    between atoms: _242  and  _245
REMARK   86  A    between atoms: _249  and  _251
REMARK   87  A    between atoms: _251  and  _252
REMARK   88  A    between atoms: _255  and  _257
REMARK   89  A    between atoms: _257  and  _258
REMARK   90  A    between atoms: _257  and  _260
REMARK   91  A    between atoms: _263  and  _265
REMARK   92  A    between atoms: _265  and  _266
REMARK   93  A    between atoms: _265  and  _268
REMARK   94  A    between atoms: _268  and  _269
REMARK   95  A    between atoms: _272  and  _274
REMARK   96  A    between atoms: _274  and  _275
REMARK   97  A    between atoms: _277  and  _279
REMARK   98  A    between atoms: _279  and  _280
REMARK   99  A    between atoms: _282  and  _284
REMARK  100  A    between atoms: _284  and  _285
REMARK  101  A    between atoms: _284  and  _287
REMARK  102  A    between atoms: _287  and  _288
REMARK  103  A    between atoms: _290  and  _292
REMARK  104  A    between atoms: _292  and  _293
REMARK  105  A    between atoms: _292  and  _295
REMARK  106  A    between atoms: _295  and  _296
REMARK  107  A    between atoms: _299  and  _301
REMARK  108  A    between atoms: _301  and  _302
REMARK  109  A    between atoms: _301  and  _304
REMARK  110  A    between atoms: _304  and  _305
REMARK  111  A    between atoms: _308  and  _310
REMARK  112  A    between atoms: _310  and  _311
REMARK  113  A    between atoms: _310  and  _313
REMARK  114  A    between atoms: _313  and  _314
REMARK  115  A    between atoms: _318  and  _319
REMARK  116  A    between atoms: _325  and  _326
REMARK  117  A    between atoms: _331  and  _333
REMARK  118  A    between atoms: _333  and  _334
REMARK  119  A    between atoms: _333  and  _336
REMARK  120  A    between atoms: _336  and  _337
REMARK  121  A    between atoms: _340  and  _342
REMARK  122  A    between atoms: _342  and  _343
REMARK  123  A    between atoms: _342  and  _345
REMARK  124  A    between atoms: _345  and  _346
REMARK  125  A    between atoms: _349  and  _351
REMARK  126  A    between atoms: _351  and  _352
REMARK  127  A    between atoms: _351  and  _354
REMARK  128  A    between atoms: _356  and  _358
REMARK  129  A    between atoms: _358  and  _359
REMARK  130  A    between atoms: _358  and  _361
REMARK  131  A    between atoms: _364  and  _366
REMARK  132  A    between atoms: _366  and  _367
REMARK  133  A    between atoms: _366  and  _369
REMARK  134  A    between atoms: _369  and  _370
REMARK  135  A    between atoms: _380  and  _382
REMARK  136  A    between atoms: _382  and  _383
REMARK  137  A    between atoms: _382  and  _385
REMARK  138  A    between atoms: _385  and  _386
REMARK  139  A    between atoms: _391  and  _393
REMARK  140  A    between atoms: _393  and  _394
REMARK  141  A    between atoms: _393  and  _396
REMARK  142  A    between atoms: _396  and  _397
REMARK  143  A    between atoms: _397  and  _398
REMARK  144  A    between atoms: _398  and  _399
REMARK                            x       y       z     vdW  Elec       q    Type
REMARK                         _______ _______ _______ _____ _____    ______ ____
ROOT
ATOM      1  O   HOH     1      17.184   4.543  11.291  0.00  0.00    +0.000 OA
ENDROOT
TORSDOF 0
REMARK  Name = ../refined-set-2016/3s75/3s75_pocket.pdb
REMARK  144 active torsions:
REMARK  status: ('A' for Active; 'I' for Inactive)
REMARK    1  A    between atoms: _1  and  _3
REMARK    2  A    between atoms: _3  and  _4
REMARK    3  A    between atoms: _3  and  _6
REMARK    4  A    between atoms: _6  and  _7
REMARK    5  A    between atoms: _17  and  _19
REMARK    6  A    between atoms: _19  and  _20
REMARK    7  A    between atoms: _19  and  _22
REMARK    8  A    between atoms: _22  and  _23
REMARK    9  A    between atoms: _28  and  _29
REMARK   10  A    between atoms: _31  and  _33
REMARK   11  A    between atoms: _33  and  _34
REMARK   12  A    between atoms: _33  and  _36
REMARK   13  A    between atoms: _36  and  _37
REMARK   14  A    between atoms: _40  and  _41
REMARK   15  A    between atoms: _46  and  _48
REMARK   16  A    between atoms: _48  and  _49
REMARK   17  A    between atoms: _48  and  _51
REMARK   18  A    between atoms: _51  and  _52
REMARK   19  A    between atoms: _57  and  _59
REMARK   20  A    between atoms: _59  and  _60
REMARK   21  A    between atoms: _63  and  _65
REMARK   22  A    between atoms: _65  and  _66
REMARK   23  A    between atoms: _65  and  _68
REMARK   24  A    between atoms: _68  and  _69
REMARK   25  A    between atoms: _74  and  _76
REMARK   26  A    between atoms: _76  and  _77
REMARK   27  A    between atoms: _76  and  _79
REMARK   28  A    between atoms: _79  and  _80
REMARK   29  A    between atoms: _83  and  _85
REMARK   30  A    between atoms: _85  and  _86
REMARK   31  A    between atoms: _85  and  _88
REMARK   32  A    between atoms: _88  and  _89
REMARK   33  A    between atoms: _89  and  _90
REMARK   34  A    between atoms: _95  and  _97
REMARK   35  A    between atoms: _97  and  _98
REMARK   36  A    between atoms: _97  and  _100
REMARK   37  A    between atoms: _100  and  _101
REMARK   38  A    between atoms: _107  and  _109
REMARK   39  A    between atoms: _120  and  _123
REMARK   40  A    between atoms: _123  and  _124
REMARK   41  A    between atoms: _132  and  _133
REMARK   42  A    between atoms: _141  and  _143
REMARK   43  A    between atoms: _143  and  _144
REMARK   44  A    between atoms: _143  and  _146
REMARK   45  A    between atoms: _146  and  _147
REMARK   46  A    between atoms: _147  and  _148
REMARK   47  A    between atoms: _151  and  _153
REMARK   48  A    between atoms: _153  and  _154
REMARK   49  A    between atoms: _153  and  _156
REMARK   50  A    between atoms: _156  and  _157
REMARK   51  A    between atoms: _162  and  _164
REMARK   52  A    between atoms: _164  and  _165
REMARK   53  A    between atoms: _164  and  _167
REMARK   54  A    between atoms: _167  and  _168
REMARK   55  A    between atoms: _168  and  _169
REMARK   56  A    between atoms: _172  and  _174
REMARK   57  A    between atoms: _174  and  _175
REMARK   58  A    between atoms: _174  and  _177
REMARK   59  A    between atoms: _177  and  _178
REMARK   60  A    between atoms: _181  and  _183
REMARK   61  A    between atoms: _183  and  _184
REMARK   62  A    between atoms: _183  and  _186
REMARK   63  A    between atoms: _186  and  _187
REMARK   64  A    between atoms: _188  and  ZN_408
REMARK   65  A    between atoms: _192  and  _194
REMARK   66  A    between atoms: _194  and  _195
REMARK   67  A    between atoms: _194  and  _197
REMARK   68  A    between atoms: _197  and  _198
REMARK   69  A    between atoms: _201  and  _203
REMARK   70  A    between atoms: _203  and  _204
REMARK   71  A    between atoms: _203  and  _206
REMARK   72  A    between atoms: _209  and  _211
REMARK   73  A    between atoms: _211  and  _212
REMARK   74  A    between atoms: _211  and  _214
REMARK   75  A    between atoms: _214  and  _215
REMARK   76  A    between atoms: _220  and  _222
REMARK   77  A    between atoms: _222  and  _223
REMARK   78  A    between atoms: _222  and  _225
REMARK   79  A    between atoms: _225  and  _226
REMARK   80  A    between atoms: _232  and  _234
REMARK   81  A    between atoms: _234  and  _235
REMARK   82  A    between atoms: _234  and  _237
REMARK   83  A    between atoms: _240  and  _242
REMARK   84  A    between atoms: _242  and  _243
REMARK   85  A    between atoms: _242  and  _245
REMARK   86  A    between atoms: _249  and  _251
REMARK   87  A    between atoms: _251  and  _252
REMARK   88  A    between atoms: _255  and  _257
REMARK   89  A    between atoms: _257  and  _258
REMARK   90  A    between atoms: _257  and  _260
REMARK   91  A    between atoms: _263  and  _265
REMARK   92  A    between atoms: _265  and  _266
REMARK   93  A    between atoms: _265  and  _268
REMARK   94  A    between atoms: _268  and  _269
REMARK   95  A    between atoms: _272  and  _274
REMARK   96  A    between atoms: _274  and  _275
REMARK   97  A    between atoms: _277  and  _279
REMARK   98  A    between atoms: _279  and  _280
REMARK   99  A    between atoms: _282  and  _284
REMARK  100  A    between atoms: _284  and  _285
REMARK  101  A    between atoms: _284  and  _287
REMARK  102  A    between atoms: _287  and  _288
REMARK  103  A    between atoms: _290  and  _292
REMARK  104  A    between atoms: _292  and  _293
REMARK  105  A    between atoms: _292  and  _295
REMARK  106  A    between atoms: _295  and  _296
REMARK  107  A    between atoms: _299  and  _301
REMARK  108  A    between atoms: _301  and  _302
REMARK  109  A    between atoms: _301  and  _304
REMARK  110  A    between atoms: _304  and  _305
REMARK  111  A    between atoms: _308  and  _310
REMARK  112  A    between atoms: _310  and  _311
REMARK  113  A    between atoms: _310  and  _313
REMARK  114  A    between atoms: _313  and  _314
REMARK  115  A    between atoms: _318  and  _319
REMARK  116  A    between atoms: _325  and  _326
REMARK  117  A    between atoms: _331  and  _333
REMARK  118  A    between atoms: _333  and  _334
REMARK  119  A    between atoms: _333  and  _336
REMARK  120  A    between atoms: _336  and  _337
REMARK  121  A    between atoms: _340  and  _342
REMARK  122  A    between atoms: _342  and  _343
REMARK  123  A    between atoms: _342  and  _345
REMARK  124  A    between atoms: _345  and  _346
REMARK  125  A    between atoms: _349  and  _351
REMARK  126  A    between atoms: _351  and  _352
REMARK  127  A    between atoms: _351  and  _354
REMARK  128  A    between atoms: _356  and  _358
REMARK  129  A    between atoms: _358  and  _359
REMARK  130  A    between atoms: _358  and  _361
REMARK  131  A    between atoms: _364  and  _366
REMARK  132  A    between atoms: _366  and  _367
REMARK  133  A    between atoms: _366  and  _369
REMARK  134  A    between atoms: _369  and  _370
REMARK  135  A    between atoms: _380  and  _382
REMARK  136  A    between atoms: _382  and  _383
REMARK  137  A    between atoms: _382  and  _385
REMARK  138  A    between atoms: _385  and  _386
REMARK  139  A    between atoms: _391  and  _393
REMARK  140  A    between atoms: _393  and  _394
REMARK  141  A    between atoms: _393  and  _396
REMARK  142  A    between atoms: _396  and  _397
REMARK  143  A    between atoms: _397  and  _398
REMARK  144  A    between atoms: _398  and  _399
REMARK                            x       y       z     vdW  Elec       q    Type
REMARK                         _______ _______ _______ _____ _____    ______ ____
ROOT
ATOM      1  O   HOH     1      14.347   6.810  12.326  0.00  0.00    +0.000 OA
ENDROOT
TORSDOF 0
REMARK  Name = ../refined-set-2016/3s75/3s75_pocket.pdb
REMARK  144 active torsions:
REMARK  status: ('A' for Active; 'I' for Inactive)
REMARK    1  A    between atoms: _1  and  _3
REMARK    2  A    between atoms: _3  and  _4
REMARK    3  A    between atoms: _3  and  _6
REMARK    4  A    between atoms: _6  and  _7
REMARK    5  A    between atoms: _17  and  _19
REMARK    6  A    between atoms: _19  and  _20
REMARK    7  A    between atoms: _19  and  _22
REMARK    8  A    between atoms: _22  and  _23
REMARK    9  A    between atoms: _28  and  _29
REMARK   10  A    between atoms: _31  and  _33
REMARK   11  A    between atoms: _33  and  _34
REMARK   12  A    between atoms: _33  and  _36
REMARK   13  A    between atoms: _36  and  _37
REMARK   14  A    between atoms: _40  and  _41
REMARK   15  A    between atoms: _46  and  _48
REMARK   16  A    between atoms: _48  and  _49
REMARK   17  A    between atoms: _48  and  _51
REMARK   18  A    between atoms: _51  and  _52
REMARK   19  A    between atoms: _57  and  _59
REMARK   20  A    between atoms: _59  and  _60
REMARK   21  A    between atoms: _63  and  _65
REMARK   22  A    between atoms: _65  and  _66
REMARK   23  A    between atoms: _65  and  _68
REMARK   24  A    between atoms: _68  and  _69
REMARK   25  A    between atoms: _74  and  _76
REMARK   26  A    between atoms: _76  and  _77
REMARK   27  A    between atoms: _76  and  _79
REMARK   28  A    between atoms: _79  and  _80
REMARK   29  A    between atoms: _83  and  _85
REMARK   30  A    between atoms: _85  and  _86
REMARK   31  A    between atoms: _85  and  _88
REMARK   32  A    between atoms: _88  and  _89
REMARK   33  A    between atoms: _89  and  _90
REMARK   34  A    between atoms: _95  and  _97
REMARK   35  A    between atoms: _97  and  _98
REMARK   36  A    between atoms: _97  and  _100
REMARK   37  A    between atoms: _100  and  _101
REMARK   38  A    between atoms: _107  and  _109
REMARK   39  A    between atoms: _120  and  _123
REMARK   40  A    between atoms: _123  and  _124
REMARK   41  A    between atoms: _132  and  _133
REMARK   42  A    between atoms: _141  and  _143
REMARK   43  A    between atoms: _143  and  _144
REMARK   44  A    between atoms: _143  and  _146
REMARK   45  A    between atoms: _146  and  _147
REMARK   46  A    between atoms: _147  and  _148
REMARK   47  A    between atoms: _151  and  _153
REMARK   48  A    between atoms: _153  and  _154
REMARK   49  A    between atoms: _153  and  _156
REMARK   50  A    between atoms: _156  and  _157
REMARK   51  A    between atoms: _162  and  _164
REMARK   52  A    between atoms: _164  and  _165
REMARK   53  A    between atoms: _164  and  _167
REMARK   54  A    between atoms: _167  and  _168
REMARK   55  A    between atoms: _168  and  _169
REMARK   56  A    between atoms: _172  and  _174
REMARK   57  A    between atoms: _174  and  _175
REMARK   58  A    between atoms: _174  and  _177
REMARK   59  A    between atoms: _177  and  _178
REMARK   60  A    between atoms: _181  and  _183
REMARK   61  A    between atoms: _183  and  _184
REMARK   62  A    between atoms: _183  and  _186
REMARK   63  A    between atoms: _186  and  _187
REMARK   64  A    between atoms: _188  and  ZN_408
REMARK   65  A    between atoms: _192  and  _194
REMARK   66  A    between atoms: _194  and  _195
REMARK   67  A    between atoms: _194  and  _197
REMARK   68  A    between atoms: _197  and  _198
REMARK   69  A    between atoms: _201  and  _203
REMARK   70  A    between atoms: _203  and  _204
REMARK   71  A    between atoms: _203  and  _206
REMARK   72  A    between atoms: _209  and  _211
REMARK   73  A    between atoms: _211  and  _212
REMARK   74  A    between atoms: _211  and  _214
REMARK   75  A    between atoms: _214  and  _215
REMARK   76  A    between atoms: _220  and  _222
REMARK   77  A    between atoms: _222  and  _223
REMARK   78  A    between atoms: _222  and  _225
REMARK   79  A    between atoms: _225  and  _226
REMARK   80  A    between atoms: _232  and  _234
REMARK   81  A    between atoms: _234  and  _235
REMARK   82  A    between atoms: _234  and  _237
REMARK   83  A    between atoms: _240  and  _242
REMARK   84  A    between atoms: _242  and  _243
REMARK   85  A    between atoms: _242  and  _245
REMARK   86  A    between atoms: _249  and  _251
REMARK   87  A    between atoms: _251  and  _252
REMARK   88  A    between atoms: _255  and  _257
REMARK   89  A    between atoms: _257  and  _258
REMARK   90  A    between atoms: _257  and  _260
REMARK   91  A    between atoms: _263  and  _265
REMARK   92  A    between atoms: _265  and  _266
REMARK   93  A    between atoms: _265  and  _268
REMARK   94  A    between atoms: _268  and  _269
REMARK   95  A    between atoms: _272  and  _274
REMARK   96  A    between atoms: _274  and  _275
REMARK   97  A    between atoms: _277  and  _279
REMARK   98  A    between atoms: _279  and  _280
REMARK   99  A    between atoms: _282  and  _284
REMARK  100  A    between atoms: _284  and  _285
REMARK  101  A    between atoms: _284  and  _287
REMARK  102  A    between atoms: _287  and  _288
REMARK  103  A    between atoms: _290  and  _292
REMARK  104  A    between atoms: _292  and  _293
REMARK  105  A    between atoms: _292  and  _295
REMARK  106  A    between atoms: _295  and  _296
REMARK  107  A    between atoms: _299  and  _301
REMARK  108  A    between atoms: _301  and  _302
REMARK  109  A    between atoms: _301  and  _304
REMARK  110  A    between atoms: _304  and  _305
REMARK  111  A    between atoms: _308  and  _310
REMARK  112  A    between atoms: _310  and  _311
REMARK  113  A    between atoms: _310  and  _313
REMARK  114  A    between atoms: _313  and  _314
REMARK  115  A    between atoms: _318  and  _319
REMARK  116  A    between atoms: _325  and  _326
REMARK  117  A    between atoms: _331  and  _333
REMARK  118  A    between atoms: _333  and  _334
REMARK  119  A    between atoms: _333  and  _336
REMARK  120  A    between atoms: _336  and  _337
REMARK  121  A    between atoms: _340  and  _342
REMARK  122  A    between atoms: _342  and  _343
REMARK  123  A    between atoms: _342  and  _345
REMARK  124  A    between atoms: _345  and  _346
REMARK  125  A    between atoms: _349  and  _351
REMARK  126  A    between atoms: _351  and  _352
REMARK  127  A    between atoms: _351  and  _354
REMARK  128  A    between atoms: _356  and  _358
REMARK  129  A    between atoms: _358  and  _359
REMARK  130  A    between atoms: _358  and  _361
REMARK  131  A    between atoms: _364  and  _366
REMARK  132  A    between atoms: _366  and  _367
REMARK  133  A    between atoms: _366  and  _369
REMARK  134  A    between atoms: _369  and  _370
REMARK  135  A    between atoms: _380  and  _382
REMARK  136  A    between atoms: _382  and  _383
REMARK  137  A    between atoms: _382  and  _385
REMARK  138  A    between atoms: _385  and  _386
REMARK  139  A    between atoms: _391  and  _393
REMARK  140  A    between atoms: _393  and  _394
REMARK  141  A    between atoms: _393  and  _396
REMARK  142  A    between atoms: _396  and  _397
REMARK  143  A    between atoms: _397  and  _398
REMARK  144  A    between atoms: _398  and  _399
REMARK                            x       y       z     vdW  Elec       q    Type
REMARK                         _______ _______ _______ _____ _____    ______ ____
ROOT
ATOM      1  O   HOH     1      20.185   8.910  14.852  0.00  0.00    +0.000 OA
ENDROOT
TORSDOF 0
REMARK  Name = ../refined-set-2016/3s75/3s75_pocket.pdb
REMARK  144 active torsions:
REMARK  status: ('A' for Active; 'I' for Inactive)
REMARK    1  A    between atoms: _1  and  _3
REMARK    2  A    between atoms: _3  and  _4
REMARK    3  A    between atoms: _3  and  _6
REMARK    4  A    between atoms: _6  and  _7
REMARK    5  A    between atoms: _17  and  _19
REMARK    6  A    between atoms: _19  and  _20
REMARK    7  A    between atoms: _19  and  _22
REMARK    8  A    between atoms: _22  and  _23
REMARK    9  A    between atoms: _28  and  _29
REMARK   10  A    between atoms: _31  and  _33
REMARK   11  A    between atoms: _33  and  _34
REMARK   12  A    between atoms: _33  and  _36
REMARK   13  A    between atoms: _36  and  _37
REMARK   14  A    between atoms: _40  and  _41
REMARK   15  A    between atoms: _46  and  _48
REMARK   16  A    between atoms: _48  and  _49
REMARK   17  A    between atoms: _48  and  _51
REMARK   18  A    between atoms: _51  and  _52
REMARK   19  A    between atoms: _57  and  _59
REMARK   20  A    between atoms: _59  and  _60
REMARK   21  A    between atoms: _63  and  _65
REMARK   22  A    between atoms: _65  and  _66
REMARK   23  A    between atoms: _65  and  _68
REMARK   24  A    between atoms: _68  and  _69
REMARK   25  A    between atoms: _74  and  _76
REMARK   26  A    between atoms: _76  and  _77
REMARK   27  A    between atoms: _76  and  _79
REMARK   28  A    between atoms: _79  and  _80
REMARK   29  A    between atoms: _83  and  _85
REMARK   30  A    between atoms: _85  and  _86
REMARK   31  A    between atoms: _85  and  _88
REMARK   32  A    between atoms: _88  and  _89
REMARK   33  A    between atoms: _89  and  _90
REMARK   34  A    between atoms: _95  and  _97
REMARK   35  A    between atoms: _97  and  _98
REMARK   36  A    between atoms: _97  and  _100
REMARK   37  A    between atoms: _100  and  _101
REMARK   38  A    between atoms: _107  and  _109
REMARK   39  A    between atoms: _120  and  _123
REMARK   40  A    between atoms: _123  and  _124
REMARK   41  A    between atoms: _132  and  _133
REMARK   42  A    between atoms: _141  and  _143
REMARK   43  A    between atoms: _143  and  _144
REMARK   44  A    between atoms: _143  and  _146
REMARK   45  A    between atoms: _146  and  _147
REMARK   46  A    between atoms: _147  and  _148
REMARK   47  A    between atoms: _151  and  _153
REMARK   48  A    between atoms: _153  and  _154
REMARK   49  A    between atoms: _153  and  _156
REMARK   50  A    between atoms: _156  and  _157
REMARK   51  A    between atoms: _162  and  _164
REMARK   52  A    between atoms: _164  and  _165
REMARK   53  A    between atoms: _164  and  _167
REMARK   54  A    between atoms: _167  and  _168
REMARK   55  A    between atoms: _168  and  _169
REMARK   56  A    between atoms: _172  and  _174
REMARK   57  A    between atoms: _174  and  _175
REMARK   58  A    between atoms: _174  and  _177
REMARK   59  A    between atoms: _177  and  _178
REMARK   60  A    between atoms: _181  and  _183
REMARK   61  A    between atoms: _183  and  _184
REMARK   62  A    between atoms: _183  and  _186
REMARK   63  A    between atoms: _186  and  _187
REMARK   64  A    between atoms: _188  and  ZN_408
REMARK   65  A    between atoms: _192  and  _194
REMARK   66  A    between atoms: _194  and  _195
REMARK   67  A    between atoms: _194  and  _197
REMARK   68  A    between atoms: _197  and  _198
REMARK   69  A    between atoms: _201  and  _203
REMARK   70  A    between atoms: _203  and  _204
REMARK   71  A    between atoms: _203  and  _206
REMARK   72  A    between atoms: _209  and  _211
REMARK   73  A    between atoms: _211  and  _212
REMARK   74  A    between atoms: _211  and  _214
REMARK   75  A    between atoms: _214  and  _215
REMARK   76  A    between atoms: _220  and  _222
REMARK   77  A    between atoms: _222  and  _223
REMARK   78  A    between atoms: _222  and  _225
REMARK   79  A    between atoms: _225  and  _226
REMARK   80  A    between atoms: _232  and  _234
REMARK   81  A    between atoms: _234  and  _235
REMARK   82  A    between atoms: _234  and  _237
REMARK   83  A    between atoms: _240  and  _242
REMARK   84  A    between atoms: _242  and  _243
REMARK   85  A    between atoms: _242  and  _245
REMARK   86  A    between atoms: _249  and  _251
REMARK   87  A    between atoms: _251  and  _252
REMARK   88  A    between atoms: _255  and  _257
REMARK   89  A    between atoms: _257  and  _258
REMARK   90  A    between atoms: _257  and  _260
REMARK   91  A    between atoms: _263  and  _265
REMARK   92  A    between atoms: _265  and  _266
REMARK   93  A    between atoms: _265  and  _268
REMARK   94  A    between atoms: _268  and  _269
REMARK   95  A    between atoms: _272  and  _274
REMARK   96  A    between atoms: _274  and  _275
REMARK   97  A    between atoms: _277  and  _279
REMARK   98  A    between atoms: _279  and  _280
REMARK   99  A    between atoms: _282  and  _284
REMARK  100  A    between atoms: _284  and  _285
REMARK  101  A    between atoms: _284  and  _287
REMARK  102  A    between atoms: _287  and  _288
REMARK  103  A    between atoms: _290  and  _292
REMARK  104  A    between atoms: _292  and  _293
REMARK  105  A    between atoms: _292  and  _295
REMARK  106  A    between atoms: _295  and  _296
REMARK  107  A    between atoms: _299  and  _301
REMARK  108  A    between atoms: _301  and  _302
REMARK  109  A    between atoms: _301  and  _304
REMARK  110  A    between atoms: _304  and  _305
REMARK  111  A    between atoms: _308  and  _310
REMARK  112  A    between atoms: _310  and  _311
REMARK  113  A    between atoms: _310  and  _313
REMARK  114  A    between atoms: _313  and  _314
REMARK  115  A    between atoms: _318  and  _319
REMARK  116  A    between atoms: _325  and  _326
REMARK  117  A    between atoms: _331  and  _333
REMARK  118  A    between atoms: _333  and  _334
REMARK  119  A    between atoms: _333  and  _336
REMARK  120  A    between atoms: _336  and  _337
REMARK  121  A    between atoms: _340  and  _342
REMARK  122  A    between atoms: _342  and  _343
REMARK  123  A    between atoms: _342  and  _345
REMARK  124  A    between atoms: _345  and  _346
REMARK  125  A    between atoms: _349  and  _351
REMARK  126  A    between atoms: _351  and  _352
REMARK  127  A    between atoms: _351  and  _354
REMARK  128  A    between atoms: _356  and  _358
REMARK  129  A    between atoms: _358  and  _359
REMARK  130  A    between atoms: _358  and  _361
REMARK  131  A    between atoms: _364  and  _366
REMARK  132  A    between atoms: _366  and  _367
REMARK  133  A    between atoms: _366  and  _369
REMARK  134  A    between atoms: _369  and  _370
REMARK  135  A    between atoms: _380  and  _382
REMARK  136  A    between atoms: _382  and  _383
REMARK  137  A    between atoms: _382  and  _385
REMARK  138  A    between atoms: _385  and  _386
REMARK  139  A    between atoms: _391  and  _393
REMARK  140  A    between atoms: _393  and  _394
REMARK  141  A    between atoms: _393  and  _396
REMARK  142  A    between atoms: _396  and  _397
REMARK  143  A    between atoms: _397  and  _398
REMARK  144  A    between atoms: _398  and  _399
REMARK                            x       y       z     vdW  Elec       q    Type
REMARK                         _______ _______ _______ _____ _____    ______ ____
ROOT
ATOM      1  O   HOH     1      17.048   4.754   7.005  0.00  0.00    +0.000 OA
ENDROOT
TORSDOF 0
REMARK  Name = ../refined-set-2016/3s75/3s75_pocket.pdb
REMARK  144 active torsions:
REMARK  status: ('A' for Active; 'I' for Inactive)
REMARK    1  A    between atoms: _1  and  _3
REMARK    2  A    between atoms: _3  and  _4
REMARK    3  A    between atoms: _3  and  _6
REMARK    4  A    between atoms: _6  and  _7
REMARK    5  A    between atoms: _17  and  _19
REMARK    6  A    between atoms: _19  and  _20
REMARK    7  A    between atoms: _19  and  _22
REMARK    8  A    between atoms: _22  and  _23
REMARK    9  A    between atoms: _28  and  _29
REMARK   10  A    between atoms: _31  and  _33
REMARK   11  A    between atoms: _33  and  _34
REMARK   12  A    between atoms: _33  and  _36
REMARK   13  A    between atoms: _36  and  _37
REMARK   14  A    between atoms: _40  and  _41
REMARK   15  A    between atoms: _46  and  _48
REMARK   16  A    between atoms: _48  and  _49
REMARK   17  A    between atoms: _48  and  _51
REMARK   18  A    between atoms: _51  and  _52
REMARK   19  A    between atoms: _57  and  _59
REMARK   20  A    between atoms: _59  and  _60
REMARK   21  A    between atoms: _63  and  _65
REMARK   22  A    between atoms: _65  and  _66
REMARK   23  A    between atoms: _65  and  _68
REMARK   24  A    between atoms: _68  and  _69
REMARK   25  A    between atoms: _74  and  _76
REMARK   26  A    between atoms: _76  and  _77
REMARK   27  A    between atoms: _76  and  _79
REMARK   28  A    between atoms: _79  and  _80
REMARK   29  A    between atoms: _83  and  _85
REMARK   30  A    between atoms: _85  and  _86
REMARK   31  A    between atoms: _85  and  _88
REMARK   32  A    between atoms: _88  and  _89
REMARK   33  A    between atoms: _89  and  _90
REMARK   34  A    between atoms: _95  and  _97
REMARK   35  A    between atoms: _97  and  _98
REMARK   36  A    between atoms: _97  and  _100
REMARK   37  A    between atoms: _100  and  _101
REMARK   38  A    between atoms: _107  and  _109
REMARK   39  A    between atoms: _120  and  _123
REMARK   40  A    between atoms: _123  and  _124
REMARK   41  A    between atoms: _132  and  _133
REMARK   42  A    between atoms: _141  and  _143
REMARK   43  A    between atoms: _143  and  _144
REMARK   44  A    between atoms: _143  and  _146
REMARK   45  A    between atoms: _146  and  _147
REMARK   46  A    between atoms: _147  and  _148
REMARK   47  A    between atoms: _151  and  _153
REMARK   48  A    between atoms: _153  and  _154
REMARK   49  A    between atoms: _153  and  _156
REMARK   50  A    between atoms: _156  and  _157
REMARK   51  A    between atoms: _162  and  _164
REMARK   52  A    between atoms: _164  and  _165
REMARK   53  A    between atoms: _164  and  _167
REMARK   54  A    between atoms: _167  and  _168
REMARK   55  A    between atoms: _168  and  _169
REMARK   56  A    between atoms: _172  and  _174
REMARK   57  A    between atoms: _174  and  _175
REMARK   58  A    between atoms: _174  and  _177
REMARK   59  A    between atoms: _177  and  _178
REMARK   60  A    between atoms: _181  and  _183
REMARK   61  A    between atoms: _183  and  _184
REMARK   62  A    between atoms: _183  and  _186
REMARK   63  A    between atoms: _186  and  _187
REMARK   64  A    between atoms: _188  and  ZN_408
REMARK   65  A    between atoms: _192  and  _194
REMARK   66  A    between atoms: _194  and  _195
REMARK   67  A    between atoms: _194  and  _197
REMARK   68  A    between atoms: _197  and  _198
REMARK   69  A    between atoms: _201  and  _203
REMARK   70  A    between atoms: _203  and  _204
REMARK   71  A    between atoms: _203  and  _206
REMARK   72  A    between atoms: _209  and  _211
REMARK   73  A    between atoms: _211  and  _212
REMARK   74  A    between atoms: _211  and  _214
REMARK   75  A    between atoms: _214  and  _215
REMARK   76  A    between atoms: _220  and  _222
REMARK   77  A    between atoms: _222  and  _223
REMARK   78  A    between atoms: _222  and  _225
REMARK   79  A    between atoms: _225  and  _226
REMARK   80  A    between atoms: _232  and  _234
REMARK   81  A    between atoms: _234  and  _235
REMARK   82  A    between atoms: _234  and  _237
REMARK   83  A    between atoms: _240  and  _242
REMARK   84  A    between atoms: _242  and  _243
REMARK   85  A    between atoms: _242  and  _245
REMARK   86  A    between atoms: _249  and  _251
REMARK   87  A    between atoms: _251  and  _252
REMARK   88  A    between atoms: _255  and  _257
REMARK   89  A    between atoms: _257  and  _258
REMARK   90  A    between atoms: _257  and  _260
REMARK   91  A    between atoms: _263  and  _265
REMARK   92  A    between atoms: _265  and  _266
REMARK   93  A    between atoms: _265  and  _268
REMARK   94  A    between atoms: _268  and  _269
REMARK   95  A    between atoms: _272  and  _274
REMARK   96  A    between atoms: _274  and  _275
REMARK   97  A    between atoms: _277  and  _279
REMARK   98  A    between atoms: _279  and  _280
REMARK   99  A    between atoms: _282  and  _284
REMARK  100  A    between atoms: _284  and  _285
REMARK  101  A    between atoms: _284  and  _287
REMARK  102  A    between atoms: _287  and  _288
REMARK  103  A    between atoms: _290  and  _292
REMARK  104  A    between atoms: _292  and  _293
REMARK  105  A    between atoms: _292  and  _295
REMARK  106  A    between atoms: _295  and  _296
REMARK  107  A    between atoms: _299  and  _301
REMARK  108  A    between atoms: _301  and  _302
REMARK  109  A    between atoms: _301  and  _304
REMARK  110  A    between atoms: _304  and  _305
REMARK  111  A    between atoms: _308  and  _310
REMARK  112  A    between atoms: _310  and  _311
REMARK  113  A    between atoms: _310  and  _313
REMARK  114  A    between atoms: _313  and  _314
REMARK  115  A    between atoms: _318  and  _319
REMARK  116  A    between atoms: _325  and  _326
REMARK  117  A    between atoms: _331  and  _333
REMARK  118  A    between atoms: _333  and  _334
REMARK  119  A    between atoms: _333  and  _336
REMARK  120  A    between atoms: _336  and  _337
REMARK  121  A    between atoms: _340  and  _342
REMARK  122  A    between atoms: _342  and  _343
REMARK  123  A    between atoms: _342  and  _345
REMARK  124  A    between atoms: _345  and  _346
REMARK  125  A    between atoms: _349  and  _351
REMARK  126  A    between atoms: _351  and  _352
REMARK  127  A    between atoms: _351  and  _354
REMARK  128  A    between atoms: _356  and  _358
REMARK  129  A    between atoms: _358  and  _359
REMARK  130  A    between atoms: _358  and  _361
REMARK  131  A    between atoms: _364  and  _366
REMARK  132  A    between atoms: _366  and  _367
REMARK  133  A    between atoms: _366  and  _369
REMARK  134  A    between atoms: _369  and  _370
REMARK  135  A    between atoms: _380  and  _382
REMARK  136  A    between atoms: _382  and  _383
REMARK  137  A    between atoms: _382  and  _385
REMARK  138  A    between atoms: _385  and  _386
REMARK  139  A    between atoms: _391  and  _393
REMARK  140  A    between atoms: _393  and  _394
REMARK  141  A    between atoms: _393  and  _396
REMARK  142  A    between atoms: _396  and  _397
REMARK  143  A    between atoms: _397  and  _398
REMARK  144  A    between atoms: _398  and  _399
REMARK                            x       y       z     vdW  Elec       q    Type
REMARK                         _______ _______ _______ _____ _____    ______ ____
ROOT
ATOM      1  O   HOH     1      17.267   6.880  12.631  0.00  0.00    +0.000 OA
ENDROOT
TORSDOF 0
REMARK  Name = ../refined-set-2016/3s75/3s75_pocket.pdb
REMARK  144 active torsions:
REMARK  status: ('A' for Active; 'I' for Inactive)
REMARK    1  A    between atoms: _1  and  _3
REMARK    2  A    between atoms: _3  and  _4
REMARK    3  A    between atoms: _3  and  _6
REMARK    4  A    between atoms: _6  and  _7
REMARK    5  A    between atoms: _17  and  _19
REMARK    6  A    between atoms: _19  and  _20
REMARK    7  A    between atoms: _19  and  _22
REMARK    8  A    between atoms: _22  and  _23
REMARK    9  A    between atoms: _28  and  _29
REMARK   10  A    between atoms: _31  and  _33
REMARK   11  A    between atoms: _33  and  _34
REMARK   12  A    between atoms: _33  and  _36
REMARK   13  A    between atoms: _36  and  _37
REMARK   14  A    between atoms: _40  and  _41
REMARK   15  A    between atoms: _46  and  _48
REMARK   16  A    between atoms: _48  and  _49
REMARK   17  A    between atoms: _48  and  _51
REMARK   18  A    between atoms: _51  and  _52
REMARK   19  A    between atoms: _57  and  _59
REMARK   20  A    between atoms: _59  and  _60
REMARK   21  A    between atoms: _63  and  _65
REMARK   22  A    between atoms: _65  and  _66
REMARK   23  A    between atoms: _65  and  _68
REMARK   24  A    between atoms: _68  and  _69
REMARK   25  A    between atoms: _74  and  _76
REMARK   26  A    between atoms: _76  and  _77
REMARK   27  A    between atoms: _76  and  _79
REMARK   28  A    between atoms: _79  and  _80
REMARK   29  A    between atoms: _83  and  _85
REMARK   30  A    between atoms: _85  and  _86
REMARK   31  A    between atoms: _85  and  _88
REMARK   32  A    between atoms: _88  and  _89
REMARK   33  A    between atoms: _89  and  _90
REMARK   34  A    between atoms: _95  and  _97
REMARK   35  A    between atoms: _97  and  _98
REMARK   36  A    between atoms: _97  and  _100
REMARK   37  A    between atoms: _100  and  _101
REMARK   38  A    between atoms: _107  and  _109
REMARK   39  A    between atoms: _120  and  _123
REMARK   40  A    between atoms: _123  and  _124
REMARK   41  A    between atoms: _132  and  _133
REMARK   42  A    between atoms: _141  and  _143
REMARK   43  A    between atoms: _143  and  _144
REMARK   44  A    between atoms: _143  and  _146
REMARK   45  A    between atoms: _146  and  _147
REMARK   46  A    between atoms: _147  and  _148
REMARK   47  A    between atoms: _151  and  _153
REMARK   48  A    between atoms: _153  and  _154
REMARK   49  A    between atoms: _153  and  _156
REMARK   50  A    between atoms: _156  and  _157
REMARK   51  A    between atoms: _162  and  _164
REMARK   52  A    between atoms: _164  and  _165
REMARK   53  A    between atoms: _164  and  _167
REMARK   54  A    between atoms: _167  and  _168
REMARK   55  A    between atoms: _168  and  _169
REMARK   56  A    between atoms: _172  and  _174
REMARK   57  A    between atoms: _174  and  _175
REMARK   58  A    between atoms: _174  and  _177
REMARK   59  A    between atoms: _177  and  _178
REMARK   60  A    between atoms: _181  and  _183
REMARK   61  A    between atoms: _183  and  _184
REMARK   62  A    between atoms: _183  and  _186
REMARK   63  A    between atoms: _186  and  _187
REMARK   64  A    between atoms: _188  and  ZN_408
REMARK   65  A    between atoms: _192  and  _194
REMARK   66  A    between atoms: _194  and  _195
REMARK   67  A    between atoms: _194  and  _197
REMARK   68  A    between atoms: _197  and  _198
REMARK   69  A    between atoms: _201  and  _203
REMARK   70  A    between atoms: _203  and  _204
REMARK   71  A    between atoms: _203  and  _206
REMARK   72  A    between atoms: _209  and  _211
REMARK   73  A    between atoms: _211  and  _212
REMARK   74  A    between atoms: _211  and  _214
REMARK   75  A    between atoms: _214  and  _215
REMARK   76  A    between atoms: _220  and  _222
REMARK   77  A    between atoms: _222  and  _223
REMARK   78  A    between atoms: _222  and  _225
REMARK   79  A    between atoms: _225  and  _226
REMARK   80  A    between atoms: _232  and  _234
REMARK   81  A    between atoms: _234  and  _235
REMARK   82  A    between atoms: _234  and  _237
REMARK   83  A    between atoms: _240  and  _242
REMARK   84  A    between atoms: _242  and  _243
REMARK   85  A    between atoms: _242  and  _245
REMARK   86  A    between atoms: _249  and  _251
REMARK   87  A    between atoms: _251  and  _252
REMARK   88  A    between atoms: _255  and  _257
REMARK   89  A    between atoms: _257  and  _258
REMARK   90  A    between atoms: _257  and  _260
REMARK   91  A    between atoms: _263  and  _265
REMARK   92  A    between atoms: _265  and  _266
REMARK   93  A    between atoms: _265  and  _268
REMARK   94  A    between atoms: _268  and  _269
REMARK   95  A    between atoms: _272  and  _274
REMARK   96  A    between atoms: _274  and  _275
REMARK   97  A    between atoms: _277  and  _279
REMARK   98  A    between atoms: _279  and  _280
REMARK   99  A    between atoms: _282  and  _284
REMARK  100  A    between atoms: _284  and  _285
REMARK  101  A    between atoms: _284  and  _287
REMARK  102  A    between atoms: _287  and  _288
REMARK  103  A    between atoms: _290  and  _292
REMARK  104  A    between atoms: _292  and  _293
REMARK  105  A    between atoms: _292  and  _295
REMARK  106  A    between atoms: _295  and  _296
REMARK  107  A    between atoms: _299  and  _301
REMARK  108  A    between atoms: _301  and  _302
REMARK  109  A    between atoms: _301  and  _304
REMARK  110  A    between atoms: _304  and  _305
REMARK  111  A    between atoms: _308  and  _310
REMARK  112  A    between atoms: _310  and  _311
REMARK  113  A    between atoms: _310  and  _313
REMARK  114  A    between atoms: _313  and  _314
REMARK  115  A    between atoms: _318  and  _319
REMARK  116  A    between atoms: _325  and  _326
REMARK  117  A    between atoms: _331  and  _333
REMARK  118  A    between atoms: _333  and  _334
REMARK  119  A    between atoms: _333  and  _336
REMARK  120  A    between atoms: _336  and  _337
REMARK  121  A    between atoms: _340  and  _342
REMARK  122  A    between atoms: _342  and  _343
REMARK  123  A    between atoms: _342  and  _345
REMARK  124  A    between atoms: _345  and  _346
REMARK  125  A    between atoms: _349  and  _351
REMARK  126  A    between atoms: _351  and  _352
REMARK  127  A    between atoms: _351  and  _354
REMARK  128  A    between atoms: _356  and  _358
REMARK  129  A    between atoms: _358  and  _359
REMARK  130  A    between atoms: _358  and  _361
REMARK  131  A    between atoms: _364  and  _366
REMARK  132  A    between atoms: _366  and  _367
REMARK  133  A    between atoms: _366  and  _369
REMARK  134  A    between atoms: _369  and  _370
REMARK  135  A    between atoms: _380  and  _382
REMARK  136  A    between atoms: _382  and  _383
REMARK  137  A    between atoms: _382  and  _385
REMARK  138  A    between atoms: _385  and  _386
REMARK  139  A    between atoms: _391  and  _393
REMARK  140  A    between atoms: _393  and  _394
REMARK  141  A    between atoms: _393  and  _396
REMARK  142  A    between atoms: _396  and  _397
REMARK  143  A    between atoms: _397  and  _398
REMARK  144  A    between atoms: _398  and  _399
REMARK                            x       y       z     vdW  Elec       q    Type
REMARK                         _______ _______ _______ _____ _____    ______ ____
ROOT
ATOM      1  O   HOH     1      19.669   3.357  11.138  0.00  0.00    +0.000 OA
ENDROOT
TORSDOF 0
