REMARK  Name = ../refined-set-2016/2euk/2euk_pocket.pdb
REMARK  286 active torsions:
REMARK  status: ('A' for Active; 'I' for Inactive)
REMARK    1  A    between atoms: _1  and  _5
REMARK    2  A    between atoms: _5  and  _6
REMARK    3  A    between atoms: _5  and  _8
REMARK    4  A    between atoms: _8  and  _9
REMARK    5  A    between atoms: _12  and  _14
REMARK    6  A    between atoms: _14  and  _15
REMARK    7  A    between atoms: _14  and  _17
REMARK    8  A    between atoms: _17  and  _18
REMARK    9  A    between atoms: _23  and  _25
REMARK   10  A    between atoms: _25  and  _26
REMARK   11  A    between atoms: _25  and  _28
REMARK   12  A    between atoms: _28  and  _29
REMARK   13  A    between atoms: _33  and  _34
REMARK   14  A    between atoms: _40  and  _41
REMARK   15  A    between atoms: _46  and  _48
REMARK   16  A    between atoms: _48  and  _49
REMARK   17  A    between atoms: _48  and  _51
REMARK   18  A    between atoms: _51  and  _52
REMARK   19  A    between atoms: _58  and  _60
REMARK   20  A    between atoms: _60  and  _61
REMARK   21  A    between atoms: _60  and  _63
REMARK   22  A    between atoms: _63  and  _64
REMARK   23  A    between atoms: _70  and  _72
REMARK   24  A    between atoms: _72  and  _73
REMARK   25  A    between atoms: _72  and  _75
REMARK   26  A    between atoms: _75  and  _76
REMARK   27  A    between atoms: _79  and  _81
REMARK   28  A    between atoms: _81  and  _82
REMARK   29  A    between atoms: _81  and  _84
REMARK   30  A    between atoms: _86  and  _88
REMARK   31  A    between atoms: _88  and  _89
REMARK   32  A    between atoms: _88  and  _91
REMARK   33  A    between atoms: _91  and  _92
REMARK   34  A    between atoms: _95  and  _97
REMARK   35  A    between atoms: _97  and  _98
REMARK   36  A    between atoms: _97  and  _100
REMARK   37  A    between atoms: _100  and  _101
REMARK   38  A    between atoms: _103  and  _105
REMARK   39  A    between atoms: _105  and  _106
REMARK   40  A    between atoms: _105  and  _108
REMARK   41  A    between atoms: _111  and  _113
REMARK   42  A    between atoms: _113  and  _114
REMARK   43  A    between atoms: _113  and  _116
REMARK   44  A    between atoms: _116  and  _117
REMARK   45  A    between atoms: _123  and  _125
REMARK   46  A    between atoms: _125  and  _126
REMARK   47  A    between atoms: _125  and  _128
REMARK   48  A    between atoms: _128  and  _129
REMARK   49  A    between atoms: _133  and  _134
REMARK   50  A    between atoms: _139  and  _141
REMARK   51  A    between atoms: _141  and  _142
REMARK   52  A    between atoms: _141  and  _144
REMARK   53  A    between atoms: _144  and  _145
REMARK   54  A    between atoms: _148  and  _150
REMARK   55  A    between atoms: _150  and  _151
REMARK   56  A    between atoms: _150  and  _153
REMARK   57  A    between atoms: _153  and  _154
REMARK   58  A    between atoms: _154  and  _155
REMARK   59  A    between atoms: _155  and  _156
REMARK   60  A    between atoms: _156  and  _157
REMARK   61  A    between atoms: _161  and  _163
REMARK   62  A    between atoms: _163  and  _164
REMARK   63  A    between atoms: _167  and  _169
REMARK   64  A    between atoms: _169  and  _170
REMARK   65  A    between atoms: _169  and  _172
REMARK   66  A    between atoms: _172  and  _173
REMARK   67  A    between atoms: _176  and  _178
REMARK   68  A    between atoms: _178  and  _179
REMARK   69  A    between atoms: _178  and  _181
REMARK   70  A    between atoms: _181  and  _182
REMARK   71  A    between atoms: _185  and  _187
REMARK   72  A    between atoms: _187  and  _188
REMARK   73  A    between atoms: _190  and  _192
REMARK   74  A    between atoms: _192  and  _193
REMARK   75  A    between atoms: _192  and  _195
REMARK   76  A    between atoms: _195  and  _196
REMARK   77  A    between atoms: _201  and  _203
REMARK   78  A    between atoms: _203  and  _204
REMARK   79  A    between atoms: _203  and  _206
REMARK   80  A    between atoms: _206  and  _207
REMARK   81  A    between atoms: _210  and  _212
REMARK   82  A    between atoms: _212  and  _213
REMARK   83  A    between atoms: _212  and  _215
REMARK   84  A    between atoms: _215  and  _216
REMARK   85  A    between atoms: _216  and  _217
REMARK   86  A    between atoms: _217  and  _218
REMARK   87  A    between atoms: _218  and  _219
REMARK   88  A    between atoms: _223  and  _225
REMARK   89  A    between atoms: _225  and  _226
REMARK   90  A    between atoms: _225  and  _228
REMARK   91  A    between atoms: _228  and  _229
REMARK   92  A    between atoms: _229  and  _230
REMARK   93  A    between atoms: _230  and  _231
REMARK   94  A    between atoms: _231  and  _232
REMARK   95  A    between atoms: _236  and  _238
REMARK   96  A    between atoms: _238  and  _239
REMARK   97  A    between atoms: _241  and  _243
REMARK   98  A    between atoms: _243  and  _244
REMARK   99  A    between atoms: _243  and  _246
REMARK  100  A    between atoms: _246  and  _247
REMARK  101  A    between atoms: _250  and  _252
REMARK  102  A    between atoms: _252  and  _253
REMARK  103  A    between atoms: _256  and  _258
REMARK  104  A    between atoms: _258  and  _259
REMARK  105  A    between atoms: _258  and  _261
REMARK  106  A    between atoms: _261  and  _262
REMARK  107  A    between atoms: _265  and  _267
REMARK  108  A    between atoms: _267  and  _268
REMARK  109  A    between atoms: _267  and  _270
REMARK  110  A    between atoms: _270  and  _271
REMARK  111  A    between atoms: _271  and  _272
REMARK  112  A    between atoms: _274  and  _276
REMARK  113  A    between atoms: _276  and  _277
REMARK  114  A    between atoms: _276  and  _279
REMARK  115  A    between atoms: _279  and  _280
REMARK  116  A    between atoms: _290  and  _292
REMARK  117  A    between atoms: _292  and  _293
REMARK  118  A    between atoms: _292  and  _295
REMARK  119  A    between atoms: _295  and  _296
REMARK  120  A    between atoms: _299  and  _301
REMARK  121  A    between atoms: _301  and  _302
REMARK  122  A    between atoms: _301  and  _304
REMARK  123  A    between atoms: _304  and  _305
REMARK  124  A    between atoms: _305  and  _306
REMARK  125  A    between atoms: _306  and  _307
REMARK  126  A    between atoms: _307  and  _308
REMARK  127  A    between atoms: _312  and  _314
REMARK  128  A    between atoms: _314  and  _315
REMARK  129  A    between atoms: _314  and  _317
REMARK  130  A    between atoms: _317  and  _318
REMARK  131  A    between atoms: _318  and  _319
REMARK  132  A    between atoms: _319  and  _320
REMARK  133  A    between atoms: _329  and  _331
REMARK  134  A    between atoms: _331  and  _332
REMARK  135  A    between atoms: _334  and  _336
REMARK  136  A    between atoms: _336  and  _337
REMARK  137  A    between atoms: _336  and  _339
REMARK  138  A    between atoms: _339  and  _340
REMARK  139  A    between atoms: _343  and  _345
REMARK  140  A    between atoms: _345  and  _346
REMARK  141  A    between atoms: _345  and  _348
REMARK  142  A    between atoms: _348  and  _349
REMARK  143  A    between atoms: _349  and  _350
REMARK  144  A    between atoms: _350  and  _351
REMARK  145  A    between atoms: _360  and  _362
REMARK  146  A    between atoms: _362  and  _363
REMARK  147  A    between atoms: _362  and  _365
REMARK  148  A    between atoms: _365  and  _366
REMARK  149  A    between atoms: _372  and  _374
REMARK  150  A    between atoms: _374  and  _375
REMARK  151  A    between atoms: _374  and  _377
REMARK  152  A    between atoms: _377  and  _378
REMARK  153  A    between atoms: _381  and  _383
REMARK  154  A    between atoms: _383  and  _384
REMARK  155  A    between atoms: _383  and  _386
REMARK  156  A    between atoms: _386  and  _387
REMARK  157  A    between atoms: _387  and  _388
REMARK  158  A    between atoms: _393  and  _395
REMARK  159  A    between atoms: _395  and  _396
REMARK  160  A    between atoms: _395  and  _398
REMARK  161  A    between atoms: _398  and  _399
REMARK  162  A    between atoms: _405  and  _407
REMARK  163  A    between atoms: _407  and  _408
REMARK  164  A    between atoms: _407  and  _410
REMARK  165  A    between atoms: _410  and  _411
REMARK  166  A    between atoms: _414  and  _416
REMARK  167  A    between atoms: _416  and  _417
REMARK  168  A    between atoms: _416  and  _419
REMARK  169  A    between atoms: _419  and  _420
REMARK  170  A    between atoms: _423  and  _425
REMARK  171  A    between atoms: _425  and  _426
REMARK  172  A    between atoms: _425  and  _428
REMARK  173  A    between atoms: _428  and  _429
REMARK  174  A    between atoms: _429  and  _430
REMARK  175  A    between atoms: _430  and  _431
REMARK  176  A    between atoms: _440  and  _442
REMARK  177  A    between atoms: _442  and  _443
REMARK  178  A    between atoms: _442  and  _445
REMARK  179  A    between atoms: _445  and  _446
REMARK  180  A    between atoms: _451  and  _453
REMARK  181  A    between atoms: _453  and  _454
REMARK  182  A    between atoms: _457  and  _459
REMARK  183  A    between atoms: _459  and  _460
REMARK  184  A    between atoms: _459  and  _462
REMARK  185  A    between atoms: _462  and  _463
REMARK  186  A    between atoms: _466  and  _468
REMARK  187  A    between atoms: _468  and  _469
REMARK  188  A    between atoms: _472  and  _474
REMARK  189  A    between atoms: _474  and  _475
REMARK  190  A    between atoms: _474  and  _477
REMARK  191  A    between atoms: _477  and  _478
REMARK  192  A    between atoms: _483  and  _484
REMARK  193  A    between atoms: _486  and  _488
REMARK  194  A    between atoms: _488  and  _489
REMARK  195  A    between atoms: _492  and  _494
REMARK  196  A    between atoms: _494  and  _495
REMARK  197  A    between atoms: _494  and  _497
REMARK  198  A    between atoms: _497  and  _498
REMARK  199  A    between atoms: _501  and  _503
REMARK  200  A    between atoms: _503  and  _504
REMARK  201  A    between atoms: _503  and  _506
REMARK  202  A    between atoms: _506  and  _507
REMARK  203  A    between atoms: _507  and  _508
REMARK  204  A    between atoms: _508  and  _509
REMARK  205  A    between atoms: _509  and  _510
REMARK  206  A    between atoms: _514  and  _516
REMARK  207  A    between atoms: _516  and  _517
REMARK  208  A    between atoms: _516  and  _519
REMARK  209  A    between atoms: _519  and  _520
REMARK  210  A    between atoms: _525  and  _526
REMARK  211  A    between atoms: _528  and  _530
REMARK  212  A    between atoms: _530  and  _531
REMARK  213  A    between atoms: _530  and  _533
REMARK  214  A    between atoms: _533  and  _534
REMARK  215  A    between atoms: _539  and  _541
REMARK  216  A    between atoms: _541  and  _542
REMARK  217  A    between atoms: _544  and  _546
REMARK  218  A    between atoms: _546  and  _547
REMARK  219  A    between atoms: _546  and  _549
REMARK  220  A    between atoms: _549  and  _550
REMARK  221  A    between atoms: _553  and  _555
REMARK  222  A    between atoms: _555  and  _556
REMARK  223  A    between atoms: _555  and  _558
REMARK  224  A    between atoms: _561  and  _563
REMARK  225  A    between atoms: _563  and  _564
REMARK  226  A    between atoms: _563  and  _566
REMARK  227  A    between atoms: _566  and  _567
REMARK  228  A    between atoms: _570  and  _572
REMARK  229  A    between atoms: _572  and  _573
REMARK  230  A    between atoms: _572  and  _575
REMARK  231  A    between atoms: _575  and  _576
REMARK  232  A    between atoms: _582  and  _584
REMARK  233  A    between atoms: _584  and  _585
REMARK  234  A    between atoms: _584  and  _587
REMARK  235  A    between atoms: _587  and  _588
REMARK  236  A    between atoms: _588  and  _589
REMARK  237  A    between atoms: _594  and  _596
REMARK  238  A    between atoms: _596  and  _597
REMARK  239  A    between atoms: _600  and  _602
REMARK  240  A    between atoms: _602  and  _603
REMARK  241  A    between atoms: _606  and  _608
REMARK  242  A    between atoms: _608  and  _609
REMARK  243  A    between atoms: _608  and  _611
REMARK  244  A    between atoms: _611  and  _612
REMARK  245  A    between atoms: _615  and  _617
REMARK  246  A    between atoms: _617  and  _618
REMARK  247  A    between atoms: _617  and  _620
REMARK  248  A    between atoms: _620  and  _621
REMARK  249  A    between atoms: _626  and  _627
REMARK  250  A    between atoms: _629  and  _631
REMARK  251  A    between atoms: _631  and  _632
REMARK  252  A    between atoms: _635  and  _637
REMARK  253  A    between atoms: _637  and  _638
REMARK  254  A    between atoms: _642  and  _643
REMARK  255  A    between atoms: _648  and  _650
REMARK  256  A    between atoms: _650  and  _651
REMARK  257  A    between atoms: _650  and  _653
REMARK  258  A    between atoms: _653  and  _654
REMARK  259  A    between atoms: _660  and  _662
REMARK  260  A    between atoms: _662  and  _663
REMARK  261  A    between atoms: _662  and  _665
REMARK  262  A    between atoms: _665  and  _666
REMARK  263  A    between atoms: _669  and  _671
REMARK  264  A    between atoms: _671  and  _672
REMARK  265  A    between atoms: _671  and  _674
REMARK  266  A    between atoms: _674  and  _675
REMARK  267  A    between atoms: _681  and  _683
REMARK  268  A    between atoms: _683  and  _684
REMARK  269  A    between atoms: _683  and  _686
REMARK  270  A    between atoms: _686  and  _687
REMARK  271  A    between atoms: _692  and  _693
REMARK  272  A    between atoms: _695  and  _697
REMARK  273  A    between atoms: _697  and  _698
REMARK  274  A    between atoms: _697  and  _700
REMARK  275  A    between atoms: _700  and  _701
REMARK  276  A    between atoms: _706  and  _707
REMARK  277  A    between atoms: _709  and  _711
REMARK  278  A    between atoms: _711  and  _712
REMARK  279  A    between atoms: _711  and  _714
REMARK  280  A    between atoms: _714  and  _715
REMARK  281  A    between atoms: _715  and  _716
REMARK  282  A    between atoms: _716  and  _717
REMARK  283  A    between atoms: _717  and  _718
REMARK  284  A    between atoms: _722  and  _724
REMARK  285  A    between atoms: _724  and  _725
REMARK  286  A    between atoms: _724  and  _727
REMARK                            x       y       z     vdW  Elec       q    Type
REMARK                         _______ _______ _______ _____ _____    ______ ____
ROOT
ATOM      1  CA  LEU A   1      -1.555   3.774  18.098  0.00  0.00    +0.001 C 
ENDROOT
BRANCH   1   2
ATOM      2  N   LEU A   1      -2.490   3.916  19.252  0.00  0.00    +0.387 N 
ATOM      3  H1  LEU A   1      -2.152   3.333  20.044  0.00  0.00    -0.089 HD
ATOM      4  H2  LEU A   1      -2.528   4.913  19.545  0.00  0.00    -0.089 HD
ATOM      5  H3  LEU A   1      -3.440   3.601  18.968  0.00  0.00    -0.089 HD
ENDBRANCH   1   2
BRANCH   1   6
ATOM      6  C   LEU A   1      -2.114   4.653  16.983  0.00  0.00    +0.185 C 
ATOM      7  O   LEU A   1      -1.389   5.446  16.374  0.00  0.00    -0.291 OA
ENDBRANCH   1   6
BRANCH   1   8
ATOM      8  CB  LEU A   1      -1.495   2.309  17.662  0.00  0.00    -0.014 C 
BRANCH   8   9
ATOM      9  CG  LEU A   1      -0.141   1.628  17.479  0.00  0.00    -0.002 C 
ATOM     10  CD2 LEU A   1       0.976   2.280  18.300  0.00  0.00    -0.000 C 
ATOM     11  CD1 LEU A   1      -0.213   0.112  17.728  0.00  0.00    -0.000 C 
ENDBRANCH   8   9
ENDBRANCH   1   8
TORSDOF 4
REMARK  Name = ../refined-set-2016/2euk/2euk_pocket.pdb
REMARK  286 active torsions:
REMARK  status: ('A' for Active; 'I' for Inactive)
REMARK    1  A    between atoms: _1  and  _5
REMARK    2  A    between atoms: _5  and  _6
REMARK    3  A    between atoms: _5  and  _8
REMARK    4  A    between atoms: _8  and  _9
REMARK    5  A    between atoms: _12  and  _14
REMARK    6  A    between atoms: _14  and  _15
REMARK    7  A    between atoms: _14  and  _17
REMARK    8  A    between atoms: _17  and  _18
REMARK    9  A    between atoms: _23  and  _25
REMARK   10  A    between atoms: _25  and  _26
REMARK   11  A    between atoms: _25  and  _28
REMARK   12  A    between atoms: _28  and  _29
REMARK   13  A    between atoms: _33  and  _34
REMARK   14  A    between atoms: _40  and  _41
REMARK   15  A    between atoms: _46  and  _48
REMARK   16  A    between atoms: _48  and  _49
REMARK   17  A    between atoms: _48  and  _51
REMARK   18  A    between atoms: _51  and  _52
REMARK   19  A    between atoms: _58  and  _60
REMARK   20  A    between atoms: _60  and  _61
REMARK   21  A    between atoms: _60  and  _63
REMARK   22  A    between atoms: _63  and  _64
REMARK   23  A    between atoms: _70  and  _72
REMARK   24  A    between atoms: _72  and  _73
REMARK   25  A    between atoms: _72  and  _75
REMARK   26  A    between atoms: _75  and  _76
REMARK   27  A    between atoms: _79  and  _81
REMARK   28  A    between atoms: _81  and  _82
REMARK   29  A    between atoms: _81  and  _84
REMARK   30  A    between atoms: _86  and  _88
REMARK   31  A    between atoms: _88  and  _89
REMARK   32  A    between atoms: _88  and  _91
REMARK   33  A    between atoms: _91  and  _92
REMARK   34  A    between atoms: _95  and  _97
REMARK   35  A    between atoms: _97  and  _98
REMARK   36  A    between atoms: _97  and  _100
REMARK   37  A    between atoms: _100  and  _101
REMARK   38  A    between atoms: _103  and  _105
REMARK   39  A    between atoms: _105  and  _106
REMARK   40  A    between atoms: _105  and  _108
REMARK   41  A    between atoms: _111  and  _113
REMARK   42  A    between atoms: _113  and  _114
REMARK   43  A    between atoms: _113  and  _116
REMARK   44  A    between atoms: _116  and  _117
REMARK   45  A    between atoms: _123  and  _125
REMARK   46  A    between atoms: _125  and  _126
REMARK   47  A    between atoms: _125  and  _128
REMARK   48  A    between atoms: _128  and  _129
REMARK   49  A    between atoms: _133  and  _134
REMARK   50  A    between atoms: _139  and  _141
REMARK   51  A    between atoms: _141  and  _142
REMARK   52  A    between atoms: _141  and  _144
REMARK   53  A    between atoms: _144  and  _145
REMARK   54  A    between atoms: _148  and  _150
REMARK   55  A    between atoms: _150  and  _151
REMARK   56  A    between atoms: _150  and  _153
REMARK   57  A    between atoms: _153  and  _154
REMARK   58  A    between atoms: _154  and  _155
REMARK   59  A    between atoms: _155  and  _156
REMARK   60  A    between atoms: _156  and  _157
REMARK   61  A    between atoms: _161  and  _163
REMARK   62  A    between atoms: _163  and  _164
REMARK   63  A    between atoms: _167  and  _169
REMARK   64  A    between atoms: _169  and  _170
REMARK   65  A    between atoms: _169  and  _172
REMARK   66  A    between atoms: _172  and  _173
REMARK   67  A    between atoms: _176  and  _178
REMARK   68  A    between atoms: _178  and  _179
REMARK   69  A    between atoms: _178  and  _181
REMARK   70  A    between atoms: _181  and  _182
REMARK   71  A    between atoms: _185  and  _187
REMARK   72  A    between atoms: _187  and  _188
REMARK   73  A    between atoms: _190  and  _192
REMARK   74  A    between atoms: _192  and  _193
REMARK   75  A    between atoms: _192  and  _195
REMARK   76  A    between atoms: _195  and  _196
REMARK   77  A    between atoms: _201  and  _203
REMARK   78  A    between atoms: _203  and  _204
REMARK   79  A    between atoms: _203  and  _206
REMARK   80  A    between atoms: _206  and  _207
REMARK   81  A    between atoms: _210  and  _212
REMARK   82  A    between atoms: _212  and  _213
REMARK   83  A    between atoms: _212  and  _215
REMARK   84  A    between atoms: _215  and  _216
REMARK   85  A    between atoms: _216  and  _217
REMARK   86  A    between atoms: _217  and  _218
REMARK   87  A    between atoms: _218  and  _219
REMARK   88  A    between atoms: _223  and  _225
REMARK   89  A    between atoms: _225  and  _226
REMARK   90  A    between atoms: _225  and  _228
REMARK   91  A    between atoms: _228  and  _229
REMARK   92  A    between atoms: _229  and  _230
REMARK   93  A    between atoms: _230  and  _231
REMARK   94  A    between atoms: _231  and  _232
REMARK   95  A    between atoms: _236  and  _238
REMARK   96  A    between atoms: _238  and  _239
REMARK   97  A    between atoms: _241  and  _243
REMARK   98  A    between atoms: _243  and  _244
REMARK   99  A    between atoms: _243  and  _246
REMARK  100  A    between atoms: _246  and  _247
REMARK  101  A    between atoms: _250  and  _252
REMARK  102  A    between atoms: _252  and  _253
REMARK  103  A    between atoms: _256  and  _258
REMARK  104  A    between atoms: _258  and  _259
REMARK  105  A    between atoms: _258  and  _261
REMARK  106  A    between atoms: _261  and  _262
REMARK  107  A    between atoms: _265  and  _267
REMARK  108  A    between atoms: _267  and  _268
REMARK  109  A    between atoms: _267  and  _270
REMARK  110  A    between atoms: _270  and  _271
REMARK  111  A    between atoms: _271  and  _272
REMARK  112  A    between atoms: _274  and  _276
REMARK  113  A    between atoms: _276  and  _277
REMARK  114  A    between atoms: _276  and  _279
REMARK  115  A    between atoms: _279  and  _280
REMARK  116  A    between atoms: _290  and  _292
REMARK  117  A    between atoms: _292  and  _293
REMARK  118  A    between atoms: _292  and  _295
REMARK  119  A    between atoms: _295  and  _296
REMARK  120  A    between atoms: _299  and  _301
REMARK  121  A    between atoms: _301  and  _302
REMARK  122  A    between atoms: _301  and  _304
REMARK  123  A    between atoms: _304  and  _305
REMARK  124  A    between atoms: _305  and  _306
REMARK  125  A    between atoms: _306  and  _307
REMARK  126  A    between atoms: _307  and  _308
REMARK  127  A    between atoms: _312  and  _314
REMARK  128  A    between atoms: _314  and  _315
REMARK  129  A    between atoms: _314  and  _317
REMARK  130  A    between atoms: _317  and  _318
REMARK  131  A    between atoms: _318  and  _319
REMARK  132  A    between atoms: _319  and  _320
REMARK  133  A    between atoms: _329  and  _331
REMARK  134  A    between atoms: _331  and  _332
REMARK  135  A    between atoms: _334  and  _336
REMARK  136  A    between atoms: _336  and  _337
REMARK  137  A    between atoms: _336  and  _339
REMARK  138  A    between atoms: _339  and  _340
REMARK  139  A    between atoms: _343  and  _345
REMARK  140  A    between atoms: _345  and  _346
REMARK  141  A    between atoms: _345  and  _348
REMARK  142  A    between atoms: _348  and  _349
REMARK  143  A    between atoms: _349  and  _350
REMARK  144  A    between atoms: _350  and  _351
REMARK  145  A    between atoms: _360  and  _362
REMARK  146  A    between atoms: _362  and  _363
REMARK  147  A    between atoms: _362  and  _365
REMARK  148  A    between atoms: _365  and  _366
REMARK  149  A    between atoms: _372  and  _374
REMARK  150  A    between atoms: _374  and  _375
REMARK  151  A    between atoms: _374  and  _377
REMARK  152  A    between atoms: _377  and  _378
REMARK  153  A    between atoms: _381  and  _383
REMARK  154  A    between atoms: _383  and  _384
REMARK  155  A    between atoms: _383  and  _386
REMARK  156  A    between atoms: _386  and  _387
REMARK  157  A    between atoms: _387  and  _388
REMARK  158  A    between atoms: _393  and  _395
REMARK  159  A    between atoms: _395  and  _396
REMARK  160  A    between atoms: _395  and  _398
REMARK  161  A    between atoms: _398  and  _399
REMARK  162  A    between atoms: _405  and  _407
REMARK  163  A    between atoms: _407  and  _408
REMARK  164  A    between atoms: _407  and  _410
REMARK  165  A    between atoms: _410  and  _411
REMARK  166  A    between atoms: _414  and  _416
REMARK  167  A    between atoms: _416  and  _417
REMARK  168  A    between atoms: _416  and  _419
REMARK  169  A    between atoms: _419  and  _420
REMARK  170  A    between atoms: _423  and  _425
REMARK  171  A    between atoms: _425  and  _426
REMARK  172  A    between atoms: _425  and  _428
REMARK  173  A    between atoms: _428  and  _429
REMARK  174  A    between atoms: _429  and  _430
REMARK  175  A    between atoms: _430  and  _431
REMARK  176  A    between atoms: _440  and  _442
REMARK  177  A    between atoms: _442  and  _443
REMARK  178  A    between atoms: _442  and  _445
REMARK  179  A    between atoms: _445  and  _446
REMARK  180  A    between atoms: _451  and  _453
REMARK  181  A    between atoms: _453  and  _454
REMARK  182  A    between atoms: _457  and  _459
REMARK  183  A    between atoms: _459  and  _460
REMARK  184  A    between atoms: _459  and  _462
REMARK  185  A    between atoms: _462  and  _463
REMARK  186  A    between atoms: _466  and  _468
REMARK  187  A    between atoms: _468  and  _469
REMARK  188  A    between atoms: _472  and  _474
REMARK  189  A    between atoms: _474  and  _475
REMARK  190  A    between atoms: _474  and  _477
REMARK  191  A    between atoms: _477  and  _478
REMARK  192  A    between atoms: _483  and  _484
REMARK  193  A    between atoms: _486  and  _488
REMARK  194  A    between atoms: _488  and  _489
REMARK  195  A    between atoms: _492  and  _494
REMARK  196  A    between atoms: _494  and  _495
REMARK  197  A    between atoms: _494  and  _497
REMARK  198  A    between atoms: _497  and  _498
REMARK  199  A    between atoms: _501  and  _503
REMARK  200  A    between atoms: _503  and  _504
REMARK  201  A    between atoms: _503  and  _506
REMARK  202  A    between atoms: _506  and  _507
REMARK  203  A    between atoms: _507  and  _508
REMARK  204  A    between atoms: _508  and  _509
REMARK  205  A    between atoms: _509  and  _510
REMARK  206  A    between atoms: _514  and  _516
REMARK  207  A    between atoms: _516  and  _517
REMARK  208  A    between atoms: _516  and  _519
REMARK  209  A    between atoms: _519  and  _520
REMARK  210  A    between atoms: _525  and  _526
REMARK  211  A    between atoms: _528  and  _530
REMARK  212  A    between atoms: _530  and  _531
REMARK  213  A    between atoms: _530  and  _533
REMARK  214  A    between atoms: _533  and  _534
REMARK  215  A    between atoms: _539  and  _541
REMARK  216  A    between atoms: _541  and  _542
REMARK  217  A    between atoms: _544  and  _546
REMARK  218  A    between atoms: _546  and  _547
REMARK  219  A    between atoms: _546  and  _549
REMARK  220  A    between atoms: _549  and  _550
REMARK  221  A    between atoms: _553  and  _555
REMARK  222  A    between atoms: _555  and  _556
REMARK  223  A    between atoms: _555  and  _558
REMARK  224  A    between atoms: _561  and  _563
REMARK  225  A    between atoms: _563  and  _564
REMARK  226  A    between atoms: _563  and  _566
REMARK  227  A    between atoms: _566  and  _567
REMARK  228  A    between atoms: _570  and  _572
REMARK  229  A    between atoms: _572  and  _573
REMARK  230  A    between atoms: _572  and  _575
REMARK  231  A    between atoms: _575  and  _576
REMARK  232  A    between atoms: _582  and  _584
REMARK  233  A    between atoms: _584  and  _585
REMARK  234  A    between atoms: _584  and  _587
REMARK  235  A    between atoms: _587  and  _588
REMARK  236  A    between atoms: _588  and  _589
REMARK  237  A    between atoms: _594  and  _596
REMARK  238  A    between atoms: _596  and  _597
REMARK  239  A    between atoms: _600  and  _602
REMARK  240  A    between atoms: _602  and  _603
REMARK  241  A    between atoms: _606  and  _608
REMARK  242  A    between atoms: _608  and  _609
REMARK  243  A    between atoms: _608  and  _611
REMARK  244  A    between atoms: _611  and  _612
REMARK  245  A    between atoms: _615  and  _617
REMARK  246  A    between atoms: _617  and  _618
REMARK  247  A    between atoms: _617  and  _620
REMARK  248  A    between atoms: _620  and  _621
REMARK  249  A    between atoms: _626  and  _627
REMARK  250  A    between atoms: _629  and  _631
REMARK  251  A    between atoms: _631  and  _632
REMARK  252  A    between atoms: _635  and  _637
REMARK  253  A    between atoms: _637  and  _638
REMARK  254  A    between atoms: _642  and  _643
REMARK  255  A    between atoms: _648  and  _650
REMARK  256  A    between atoms: _650  and  _651
REMARK  257  A    between atoms: _650  and  _653
REMARK  258  A    between atoms: _653  and  _654
REMARK  259  A    between atoms: _660  and  _662
REMARK  260  A    between atoms: _662  and  _663
REMARK  261  A    between atoms: _662  and  _665
REMARK  262  A    between atoms: _665  and  _666
REMARK  263  A    between atoms: _669  and  _671
REMARK  264  A    between atoms: _671  and  _672
REMARK  265  A    between atoms: _671  and  _674
REMARK  266  A    between atoms: _674  and  _675
REMARK  267  A    between atoms: _681  and  _683
REMARK  268  A    between atoms: _683  and  _684
REMARK  269  A    between atoms: _683  and  _686
REMARK  270  A    between atoms: _686  and  _687
REMARK  271  A    between atoms: _692  and  _693
REMARK  272  A    between atoms: _695  and  _697
REMARK  273  A    between atoms: _697  and  _698
REMARK  274  A    between atoms: _697  and  _700
REMARK  275  A    between atoms: _700  and  _701
REMARK  276  A    between atoms: _706  and  _707
REMARK  277  A    between atoms: _709  and  _711
REMARK  278  A    between atoms: _711  and  _712
REMARK  279  A    between atoms: _711  and  _714
REMARK  280  A    between atoms: _714  and  _715
REMARK  281  A    between atoms: _715  and  _716
REMARK  282  A    between atoms: _716  and  _717
REMARK  283  A    between atoms: _717  and  _718
REMARK  284  A    between atoms: _722  and  _724
REMARK  285  A    between atoms: _724  and  _725
REMARK  286  A    between atoms: _724  and  _727
REMARK                            x       y       z     vdW  Elec       q    Type
REMARK                         _______ _______ _______ _____ _____    ______ ____
ROOT
ATOM      1  CA  PHE A   5       4.075   2.076  24.747  0.00  0.00    +0.153 C 
ENDROOT
BRANCH   1   4
ATOM      2  C   PRO A   4       5.173   4.007  25.734  0.00  0.00    +0.241 C 
ATOM      3  O   PRO A   4       4.840   3.641  26.851  0.00  0.00    -0.273 OA
ATOM      4  N   PHE A   5       4.826   3.327  24.644  0.00  0.00    -0.297 N 
ATOM      5  H   PHE A   5       5.092   3.690  23.706  0.00  0.00    +0.150 HD
BRANCH   2   9
ATOM      6  C   PRO A   3       7.821   4.354  24.250  0.00  0.00    +0.244 C 
ATOM      7  O   PRO A   3       8.016   3.451  25.066  0.00  0.00    -0.273 OA
ATOM      8  N   PRO A   4       6.936   5.351  24.458  0.00  0.00    -0.272 N 
ATOM      9  CA  PRO A   4       6.027   5.276  25.603  0.00  0.00    +0.152 C 
ATOM     10  CB  PRO A   4       5.143   6.515  25.411  0.00  0.00    +0.031 C 
ATOM     11  CG  PRO A   4       6.077   7.504  24.783  0.00  0.00    +0.024 C 
ATOM     12  CD  PRO A   4       6.745   6.626  23.735  0.00  0.00    +0.094 C 
BRANCH   6  16
ATOM     13  C   LEU A   2       6.777   4.202  21.418  0.00  0.00    +0.244 C 
ATOM     14  O   LEU A   2       6.258   3.310  22.086  0.00  0.00    -0.273 OA
ATOM     15  N   PRO A   3       7.938   4.804  21.761  0.00  0.00    -0.272 N 
ATOM     16  CA  PRO A   3       8.662   4.380  22.963  0.00  0.00    +0.152 C 
ATOM     17  CB  PRO A   3       9.776   5.430  23.050  0.00  0.00    +0.031 C 
ATOM     18  CG  PRO A   3      10.132   5.639  21.575  0.00  0.00    +0.024 C 
ATOM     19  CD  PRO A   3       8.718   5.828  21.035  0.00  0.00    +0.094 C 
BRANCH  13  20
ATOM     20  CA  LEU A   2       6.051   4.663  20.152  0.00  0.00    +0.149 C 
BRANCH  20  23
ATOM     21  C   HIS A   1       4.993   6.831  20.548  0.00  0.00    +0.239 C 
ATOM     22  O   HIS A   1       4.174   6.326  21.339  0.00  0.00    -0.274 OA
ATOM     23  N   LEU A   2       5.949   6.111  19.959  0.00  0.00    -0.297 N 
ATOM     24  H   LEU A   2       6.640   6.590  19.347  0.00  0.00    +0.150 HD
BRANCH  21  25
ATOM     25  CA  HIS A   1       4.929   8.325  20.224  0.00  0.00    +0.151 C 
BRANCH  25  26
ATOM     26  N   HIS A   1       6.076   8.828  19.463  0.00  0.00    -0.238 NA
ATOM     27  H   HIS A   1       5.994   8.943  18.433  0.00  0.00    +0.142 HD
ENDBRANCH  25  26
BRANCH  25  28
ATOM     28  CB  HIS A   1       3.612   8.650  19.499  0.00  0.00    +0.074 C 
BRANCH  28  29
ATOM     29  CG  HIS A   1       3.344  10.118  19.348  0.00  0.00    +0.082 A 
ATOM     30  ND1 HIS A   1       2.861  10.905  20.370  0.00  0.00    -0.227 NA
ATOM     31  CE1 HIS A   1       2.736  12.152  19.950  0.00  0.00    +0.199 A 
ATOM     32  NE2 HIS A   1       3.107  12.203  18.683  0.00  0.00    -0.221 NA
ATOM     33  CD2 HIS A   1       3.484  10.942  18.283  0.00  0.00    +0.115 A 
ENDBRANCH  28  29
ENDBRANCH  25  28
ENDBRANCH  21  25
ENDBRANCH  20  23
BRANCH  20  34
ATOM     34  CB  LEU A   2       6.514   3.911  18.893  0.00  0.00    +0.029 C 
BRANCH  34  35
ATOM     35  CG  LEU A   2       5.681   4.155  17.622  0.00  0.00    +0.002 C 
ATOM     36  CD2 LEU A   2       4.344   3.432  17.686  0.00  0.00    +0.000 C 
ATOM     37  CD1 LEU A   2       6.447   3.655  16.409  0.00  0.00    +0.000 C 
ENDBRANCH  34  35
ENDBRANCH  20  34
ENDBRANCH  13  20
ENDBRANCH   6  16
ENDBRANCH   2   9
ENDBRANCH   1   4
BRANCH   1  38
ATOM     38  C   PHE A   5       4.821   1.015  25.560  0.00  0.00    +0.241 C 
ATOM     39  O   PHE A   5       4.186   0.138  26.153  0.00  0.00    -0.273 OA
ATOM     40  N   PHE A   6       6.154   1.097  25.567  0.00  0.00    -0.297 N 
ATOM     41  H   PHE A   6       6.601   1.856  25.014  0.00  0.00    +0.150 HD
BRANCH  40  42
ATOM     42  CA  PHE A   6       7.022   0.180  26.308  0.00  0.00    +0.153 C 
BRANCH  42  43
ATOM     43  C   PHE A   6       6.937   0.297  27.832  0.00  0.00    +0.241 C 
ATOM     44  O   PHE A   6       7.309  -0.640  28.535  0.00  0.00    -0.273 OA
ATOM     45  N   ASP A   7       6.478   1.446  28.327  0.00  0.00    -0.297 N 
ATOM     46  H   ASP A   7       6.290   2.232  27.673  0.00  0.00    +0.150 HD
BRANCH  45  47
ATOM     47  CA  ASP A   7       6.228   1.646  29.759  0.00  0.00    +0.160 C 
BRANCH  47  48
ATOM     48  C   ASP A   7       4.979   0.926  30.264  0.00  0.00    +0.241 C 
ATOM     49  O   ASP A   7       4.808   0.728  31.474  0.00  0.00    -0.273 OA
ATOM     50  N   CYS A   8       4.133   0.518  29.323  0.00  0.00    -0.296 N 
ATOM     51  H   CYS A   8       4.408   0.645  28.328  0.00  0.00    +0.150 HD
BRANCH  50  52
ATOM     52  CA  CYS A   8       2.843  -0.096  29.606  0.00  0.00    +0.160 C 
BRANCH  52  53
ATOM     53  C   CYS A   8       2.786  -1.616  29.416  0.00  0.00    +0.242 C 
ATOM     54  O   CYS A   8       1.696  -2.190  29.473  0.00  0.00    -0.273 OA
ATOM     55  N   LEU A   9       3.932  -2.254  29.176  0.00  0.00    -0.298 N 
ATOM     56  H   LEU A   9       4.813  -1.701  29.147  0.00  0.00    +0.150 HD
BRANCH  55  57
ATOM     57  CA  LEU A   9       4.004  -3.700  28.952  0.00  0.00    +0.137 C 
BRANCH  57  58
ATOM     58  C   LEU A   9       4.265  -4.501  30.228  0.00  0.00    +0.227 C 
ATOM     59  O   LEU A   9       4.364  -5.732  30.192  0.00  0.00    -0.286 OA
ENDBRANCH  57  58
BRANCH  57  60
ATOM     60  CB  LEU A   9       5.077  -4.023  27.915  0.00  0.00    +0.028 C 
BRANCH  60  61
ATOM     61  CG  LEU A   9       4.706  -4.075  26.432  0.00  0.00    +0.002 C 
ATOM     62  CD2 LEU A   9       3.615  -3.082  26.071  0.00  0.00    +0.000 C 
ATOM     63  CD1 LEU A   9       5.945  -3.857  25.592  0.00  0.00    +0.000 C 
ENDBRANCH  60  61
ENDBRANCH  57  60
ENDBRANCH  55  57
ENDBRANCH  52  53
BRANCH  52  64
ATOM     64  CB  CYS A   8       1.788   0.565  28.714  0.00  0.00    +0.098 C 
ATOM     65  SG  CYS A   8       1.762   2.359  28.917  0.00  0.00    -0.080 S 
ENDBRANCH  52  64
ENDBRANCH  50  52
ENDBRANCH  47  48
BRANCH  47  66
ATOM     66  CB  ASP A   7       6.113   3.131  30.089  0.00  0.00    +0.143 C 
BRANCH  66  67
ATOM     67  CG  ASP A   7       7.444   3.843  30.008  0.00  0.00    +0.367 C 
ATOM     68  OD2 ASP A   7       8.487   3.179  30.211  0.00  0.00    -0.246 OA
ATOM     69  OD1 ASP A   7       7.441   5.069  29.748  0.00  0.00    -0.246 OA
ENDBRANCH  66  67
ENDBRANCH  47  66
ENDBRANCH  45  47
ENDBRANCH  42  43
BRANCH  42  70
ATOM     70  CB  PHE A   6       8.472   0.294  25.842  0.00  0.00    +0.055 C 
BRANCH  70  71
ATOM     71  CG  PHE A   6       8.719  -0.341  24.505  0.00  0.00    -0.020 A 
ATOM     72  CD2 PHE A   6       8.839  -1.719  24.393  0.00  0.00    -0.004 A 
ATOM     73  CE2 PHE A   6       9.046  -2.319  23.161  0.00  0.00    -0.000 A 
ATOM     74  CZ  PHE A   6       9.149  -1.532  22.019  0.00  0.00    -0.000 A 
ATOM     75  CE1 PHE A   6       9.013  -0.161  22.115  0.00  0.00    -0.000 A 
ATOM     76  CD1 PHE A   6       8.803   0.433  23.356  0.00  0.00    -0.004 A 
ENDBRANCH  70  71
ENDBRANCH  42  70
ENDBRANCH  40  42
ENDBRANCH   1  38
BRANCH   1  77
ATOM     77  CB  PHE A   5       3.716   1.508  23.373  0.00  0.00    +0.055 C 
BRANCH  77  78
ATOM     78  CG  PHE A   5       2.599   2.242  22.689  0.00  0.00    -0.020 A 
ATOM     79  CD2 PHE A   5       1.290   1.797  22.808  0.00  0.00    -0.004 A 
ATOM     80  CE2 PHE A   5       0.241   2.472  22.176  0.00  0.00    -0.000 A 
ATOM     81  CZ  PHE A   5       0.501   3.609  21.433  0.00  0.00    -0.000 A 
ATOM     82  CE1 PHE A   5       1.816   4.080  21.324  0.00  0.00    -0.000 A 
ATOM     83  CD1 PHE A   5       2.853   3.389  21.942  0.00  0.00    -0.004 A 
ENDBRANCH  77  78
ENDBRANCH   1  77
TORSDOF 29
REMARK  Name = ../refined-set-2016/2euk/2euk_pocket.pdb
REMARK  286 active torsions:
REMARK  status: ('A' for Active; 'I' for Inactive)
REMARK    1  A    between atoms: _1  and  _5
REMARK    2  A    between atoms: _5  and  _6
REMARK    3  A    between atoms: _5  and  _8
REMARK    4  A    between atoms: _8  and  _9
REMARK    5  A    between atoms: _12  and  _14
REMARK    6  A    between atoms: _14  and  _15
REMARK    7  A    between atoms: _14  and  _17
REMARK    8  A    between atoms: _17  and  _18
REMARK    9  A    between atoms: _23  and  _25
REMARK   10  A    between atoms: _25  and  _26
REMARK   11  A    between atoms: _25  and  _28
REMARK   12  A    between atoms: _28  and  _29
REMARK   13  A    between atoms: _33  and  _34
REMARK   14  A    between atoms: _40  and  _41
REMARK   15  A    between atoms: _46  and  _48
REMARK   16  A    between atoms: _48  and  _49
REMARK   17  A    between atoms: _48  and  _51
REMARK   18  A    between atoms: _51  and  _52
REMARK   19  A    between atoms: _58  and  _60
REMARK   20  A    between atoms: _60  and  _61
REMARK   21  A    between atoms: _60  and  _63
REMARK   22  A    between atoms: _63  and  _64
REMARK   23  A    between atoms: _70  and  _72
REMARK   24  A    between atoms: _72  and  _73
REMARK   25  A    between atoms: _72  and  _75
REMARK   26  A    between atoms: _75  and  _76
REMARK   27  A    between atoms: _79  and  _81
REMARK   28  A    between atoms: _81  and  _82
REMARK   29  A    between atoms: _81  and  _84
REMARK   30  A    between atoms: _86  and  _88
REMARK   31  A    between atoms: _88  and  _89
REMARK   32  A    between atoms: _88  and  _91
REMARK   33  A    between atoms: _91  and  _92
REMARK   34  A    between atoms: _95  and  _97
REMARK   35  A    between atoms: _97  and  _98
REMARK   36  A    between atoms: _97  and  _100
REMARK   37  A    between atoms: _100  and  _101
REMARK   38  A    between atoms: _103  and  _105
REMARK   39  A    between atoms: _105  and  _106
REMARK   40  A    between atoms: _105  and  _108
REMARK   41  A    between atoms: _111  and  _113
REMARK   42  A    between atoms: _113  and  _114
REMARK   43  A    between atoms: _113  and  _116
REMARK   44  A    between atoms: _116  and  _117
REMARK   45  A    between atoms: _123  and  _125
REMARK   46  A    between atoms: _125  and  _126
REMARK   47  A    between atoms: _125  and  _128
REMARK   48  A    between atoms: _128  and  _129
REMARK   49  A    between atoms: _133  and  _134
REMARK   50  A    between atoms: _139  and  _141
REMARK   51  A    between atoms: _141  and  _142
REMARK   52  A    between atoms: _141  and  _144
REMARK   53  A    between atoms: _144  and  _145
REMARK   54  A    between atoms: _148  and  _150
REMARK   55  A    between atoms: _150  and  _151
REMARK   56  A    between atoms: _150  and  _153
REMARK   57  A    between atoms: _153  and  _154
REMARK   58  A    between atoms: _154  and  _155
REMARK   59  A    between atoms: _155  and  _156
REMARK   60  A    between atoms: _156  and  _157
REMARK   61  A    between atoms: _161  and  _163
REMARK   62  A    between atoms: _163  and  _164
REMARK   63  A    between atoms: _167  and  _169
REMARK   64  A    between atoms: _169  and  _170
REMARK   65  A    between atoms: _169  and  _172
REMARK   66  A    between atoms: _172  and  _173
REMARK   67  A    between atoms: _176  and  _178
REMARK   68  A    between atoms: _178  and  _179
REMARK   69  A    between atoms: _178  and  _181
REMARK   70  A    between atoms: _181  and  _182
REMARK   71  A    between atoms: _185  and  _187
REMARK   72  A    between atoms: _187  and  _188
REMARK   73  A    between atoms: _190  and  _192
REMARK   74  A    between atoms: _192  and  _193
REMARK   75  A    between atoms: _192  and  _195
REMARK   76  A    between atoms: _195  and  _196
REMARK   77  A    between atoms: _201  and  _203
REMARK   78  A    between atoms: _203  and  _204
REMARK   79  A    between atoms: _203  and  _206
REMARK   80  A    between atoms: _206  and  _207
REMARK   81  A    between atoms: _210  and  _212
REMARK   82  A    between atoms: _212  and  _213
REMARK   83  A    between atoms: _212  and  _215
REMARK   84  A    between atoms: _215  and  _216
REMARK   85  A    between atoms: _216  and  _217
REMARK   86  A    between atoms: _217  and  _218
REMARK   87  A    between atoms: _218  and  _219
REMARK   88  A    between atoms: _223  and  _225
REMARK   89  A    between atoms: _225  and  _226
REMARK   90  A    between atoms: _225  and  _228
REMARK   91  A    between atoms: _228  and  _229
REMARK   92  A    between atoms: _229  and  _230
REMARK   93  A    between atoms: _230  and  _231
REMARK   94  A    between atoms: _231  and  _232
REMARK   95  A    between atoms: _236  and  _238
REMARK   96  A    between atoms: _238  and  _239
REMARK   97  A    between atoms: _241  and  _243
REMARK   98  A    between atoms: _243  and  _244
REMARK   99  A    between atoms: _243  and  _246
REMARK  100  A    between atoms: _246  and  _247
REMARK  101  A    between atoms: _250  and  _252
REMARK  102  A    between atoms: _252  and  _253
REMARK  103  A    between atoms: _256  and  _258
REMARK  104  A    between atoms: _258  and  _259
REMARK  105  A    between atoms: _258  and  _261
REMARK  106  A    between atoms: _261  and  _262
REMARK  107  A    between atoms: _265  and  _267
REMARK  108  A    between atoms: _267  and  _268
REMARK  109  A    between atoms: _267  and  _270
REMARK  110  A    between atoms: _270  and  _271
REMARK  111  A    between atoms: _271  and  _272
REMARK  112  A    between atoms: _274  and  _276
REMARK  113  A    between atoms: _276  and  _277
REMARK  114  A    between atoms: _276  and  _279
REMARK  115  A    between atoms: _279  and  _280
REMARK  116  A    between atoms: _290  and  _292
REMARK  117  A    between atoms: _292  and  _293
REMARK  118  A    between atoms: _292  and  _295
REMARK  119  A    between atoms: _295  and  _296
REMARK  120  A    between atoms: _299  and  _301
REMARK  121  A    between atoms: _301  and  _302
REMARK  122  A    between atoms: _301  and  _304
REMARK  123  A    between atoms: _304  and  _305
REMARK  124  A    between atoms: _305  and  _306
REMARK  125  A    between atoms: _306  and  _307
REMARK  126  A    between atoms: _307  and  _308
REMARK  127  A    between atoms: _312  and  _314
REMARK  128  A    between atoms: _314  and  _315
REMARK  129  A    between atoms: _314  and  _317
REMARK  130  A    between atoms: _317  and  _318
REMARK  131  A    between atoms: _318  and  _319
REMARK  132  A    between atoms: _319  and  _320
REMARK  133  A    between atoms: _329  and  _331
REMARK  134  A    between atoms: _331  and  _332
REMARK  135  A    between atoms: _334  and  _336
REMARK  136  A    between atoms: _336  and  _337
REMARK  137  A    between atoms: _336  and  _339
REMARK  138  A    between atoms: _339  and  _340
REMARK  139  A    between atoms: _343  and  _345
REMARK  140  A    between atoms: _345  and  _346
REMARK  141  A    between atoms: _345  and  _348
REMARK  142  A    between atoms: _348  and  _349
REMARK  143  A    between atoms: _349  and  _350
REMARK  144  A    between atoms: _350  and  _351
REMARK  145  A    between atoms: _360  and  _362
REMARK  146  A    between atoms: _362  and  _363
REMARK  147  A    between atoms: _362  and  _365
REMARK  148  A    between atoms: _365  and  _366
REMARK  149  A    between atoms: _372  and  _374
REMARK  150  A    between atoms: _374  and  _375
REMARK  151  A    between atoms: _374  and  _377
REMARK  152  A    between atoms: _377  and  _378
REMARK  153  A    between atoms: _381  and  _383
REMARK  154  A    between atoms: _383  and  _384
REMARK  155  A    between atoms: _383  and  _386
REMARK  156  A    between atoms: _386  and  _387
REMARK  157  A    between atoms: _387  and  _388
REMARK  158  A    between atoms: _393  and  _395
REMARK  159  A    between atoms: _395  and  _396
REMARK  160  A    between atoms: _395  and  _398
REMARK  161  A    between atoms: _398  and  _399
REMARK  162  A    between atoms: _405  and  _407
REMARK  163  A    between atoms: _407  and  _408
REMARK  164  A    between atoms: _407  and  _410
REMARK  165  A    between atoms: _410  and  _411
REMARK  166  A    between atoms: _414  and  _416
REMARK  167  A    between atoms: _416  and  _417
REMARK  168  A    between atoms: _416  and  _419
REMARK  169  A    between atoms: _419  and  _420
REMARK  170  A    between atoms: _423  and  _425
REMARK  171  A    between atoms: _425  and  _426
REMARK  172  A    between atoms: _425  and  _428
REMARK  173  A    between atoms: _428  and  _429
REMARK  174  A    between atoms: _429  and  _430
REMARK  175  A    between atoms: _430  and  _431
REMARK  176  A    between atoms: _440  and  _442
REMARK  177  A    between atoms: _442  and  _443
REMARK  178  A    between atoms: _442  and  _445
REMARK  179  A    between atoms: _445  and  _446
REMARK  180  A    between atoms: _451  and  _453
REMARK  181  A    between atoms: _453  and  _454
REMARK  182  A    between atoms: _457  and  _459
REMARK  183  A    between atoms: _459  and  _460
REMARK  184  A    between atoms: _459  and  _462
REMARK  185  A    between atoms: _462  and  _463
REMARK  186  A    between atoms: _466  and  _468
REMARK  187  A    between atoms: _468  and  _469
REMARK  188  A    between atoms: _472  and  _474
REMARK  189  A    between atoms: _474  and  _475
REMARK  190  A    between atoms: _474  and  _477
REMARK  191  A    between atoms: _477  and  _478
REMARK  192  A    between atoms: _483  and  _484
REMARK  193  A    between atoms: _486  and  _488
REMARK  194  A    between atoms: _488  and  _489
REMARK  195  A    between atoms: _492  and  _494
REMARK  196  A    between atoms: _494  and  _495
REMARK  197  A    between atoms: _494  and  _497
REMARK  198  A    between atoms: _497  and  _498
REMARK  199  A    between atoms: _501  and  _503
REMARK  200  A    between atoms: _503  and  _504
REMARK  201  A    between atoms: _503  and  _506
REMARK  202  A    between atoms: _506  and  _507
REMARK  203  A    between atoms: _507  and  _508
REMARK  204  A    between atoms: _508  and  _509
REMARK  205  A    between atoms: _509  and  _510
REMARK  206  A    between atoms: _514  and  _516
REMARK  207  A    between atoms: _516  and  _517
REMARK  208  A    between atoms: _516  and  _519
REMARK  209  A    between atoms: _519  and  _520
REMARK  210  A    between atoms: _525  and  _526
REMARK  211  A    between atoms: _528  and  _530
REMARK  212  A    between atoms: _530  and  _531
REMARK  213  A    between atoms: _530  and  _533
REMARK  214  A    between atoms: _533  and  _534
REMARK  215  A    between atoms: _539  and  _541
REMARK  216  A    between atoms: _541  and  _542
REMARK  217  A    between atoms: _544  and  _546
REMARK  218  A    between atoms: _546  and  _547
REMARK  219  A    between atoms: _546  and  _549
REMARK  220  A    between atoms: _549  and  _550
REMARK  221  A    between atoms: _553  and  _555
REMARK  222  A    between atoms: _555  and  _556
REMARK  223  A    between atoms: _555  and  _558
REMARK  224  A    between atoms: _561  and  _563
REMARK  225  A    between atoms: _563  and  _564
REMARK  226  A    between atoms: _563  and  _566
REMARK  227  A    between atoms: _566  and  _567
REMARK  228  A    between atoms: _570  and  _572
REMARK  229  A    between atoms: _572  and  _573
REMARK  230  A    between atoms: _572  and  _575
REMARK  231  A    between atoms: _575  and  _576
REMARK  232  A    between atoms: _582  and  _584
REMARK  233  A    between atoms: _584  and  _585
REMARK  234  A    between atoms: _584  and  _587
REMARK  235  A    between atoms: _587  and  _588
REMARK  236  A    between atoms: _588  and  _589
REMARK  237  A    between atoms: _594  and  _596
REMARK  238  A    between atoms: _596  and  _597
REMARK  239  A    between atoms: _600  and  _602
REMARK  240  A    between atoms: _602  and  _603
REMARK  241  A    between atoms: _606  and  _608
REMARK  242  A    between atoms: _608  and  _609
REMARK  243  A    between atoms: _608  and  _611
REMARK  244  A    between atoms: _611  and  _612
REMARK  245  A    between atoms: _615  and  _617
REMARK  246  A    between atoms: _617  and  _618
REMARK  247  A    between atoms: _617  and  _620
REMARK  248  A    between atoms: _620  and  _621
REMARK  249  A    between atoms: _626  and  _627
REMARK  250  A    between atoms: _629  and  _631
REMARK  251  A    between atoms: _631  and  _632
REMARK  252  A    between atoms: _635  and  _637
REMARK  253  A    between atoms: _637  and  _638
REMARK  254  A    between atoms: _642  and  _643
REMARK  255  A    between atoms: _648  and  _650
REMARK  256  A    between atoms: _650  and  _651
REMARK  257  A    between atoms: _650  and  _653
REMARK  258  A    between atoms: _653  and  _654
REMARK  259  A    between atoms: _660  and  _662
REMARK  260  A    between atoms: _662  and  _663
REMARK  261  A    between atoms: _662  and  _665
REMARK  262  A    between atoms: _665  and  _666
REMARK  263  A    between atoms: _669  and  _671
REMARK  264  A    between atoms: _671  and  _672
REMARK  265  A    between atoms: _671  and  _674
REMARK  266  A    between atoms: _674  and  _675
REMARK  267  A    between atoms: _681  and  _683
REMARK  268  A    between atoms: _683  and  _684
REMARK  269  A    between atoms: _683  and  _686
REMARK  270  A    between atoms: _686  and  _687
REMARK  271  A    between atoms: _692  and  _693
REMARK  272  A    between atoms: _695  and  _697
REMARK  273  A    between atoms: _697  and  _698
REMARK  274  A    between atoms: _697  and  _700
REMARK  275  A    between atoms: _700  and  _701
REMARK  276  A    between atoms: _706  and  _707
REMARK  277  A    between atoms: _709  and  _711
REMARK  278  A    between atoms: _711  and  _712
REMARK  279  A    between atoms: _711  and  _714
REMARK  280  A    between atoms: _714  and  _715
REMARK  281  A    between atoms: _715  and  _716
REMARK  282  A    between atoms: _716  and  _717
REMARK  283  A    between atoms: _717  and  _718
REMARK  284  A    between atoms: _722  and  _724
REMARK  285  A    between atoms: _724  and  _725
REMARK  286  A    between atoms: _724  and  _727
REMARK                            x       y       z     vdW  Elec       q    Type
REMARK                         _______ _______ _______ _____ _____    ______ ____
ROOT
ATOM      1  CA  SER A   1       8.126  -5.156  32.824  0.00  0.00    +0.163 C 
ENDROOT
BRANCH   1   2
ATOM      2  N   SER A   1       6.822  -4.585  32.516  0.00  0.00    -0.237 NA
ATOM      3  H   SER A   1       6.762  -3.808  31.828  0.00  0.00    +0.142 HD
ENDBRANCH   1   2
BRANCH   1   4
ATOM      4  CB  SER A   1       9.296  -4.178  32.676  0.00  0.00    +0.227 C 
ATOM      5  OG  SER A   1       9.410  -3.474  31.668  0.00  0.00    -0.287 OA
ENDBRANCH   1   4
BRANCH   1   6
ATOM      6  C   SER A   1       8.414  -6.400  31.969  0.00  0.00    +0.162 C 
BRANCH   6   7
ATOM      7  O   SER A   1       9.659  -7.000  32.315  0.00  0.00    -0.380 OA
ATOM      8  H   SER A   1       9.639  -7.273  33.267  0.00  0.00    +0.211 HD
ENDBRANCH   6   7
ENDBRANCH   1   6
TORSDOF 4
REMARK  Name = ../refined-set-2016/2euk/2euk_pocket.pdb
REMARK  286 active torsions:
REMARK  status: ('A' for Active; 'I' for Inactive)
REMARK    1  A    between atoms: _1  and  _5
REMARK    2  A    between atoms: _5  and  _6
REMARK    3  A    between atoms: _5  and  _8
REMARK    4  A    between atoms: _8  and  _9
REMARK    5  A    between atoms: _12  and  _14
REMARK    6  A    between atoms: _14  and  _15
REMARK    7  A    between atoms: _14  and  _17
REMARK    8  A    between atoms: _17  and  _18
REMARK    9  A    between atoms: _23  and  _25
REMARK   10  A    between atoms: _25  and  _26
REMARK   11  A    between atoms: _25  and  _28
REMARK   12  A    between atoms: _28  and  _29
REMARK   13  A    between atoms: _33  and  _34
REMARK   14  A    between atoms: _40  and  _41
REMARK   15  A    between atoms: _46  and  _48
REMARK   16  A    between atoms: _48  and  _49
REMARK   17  A    between atoms: _48  and  _51
REMARK   18  A    between atoms: _51  and  _52
REMARK   19  A    between atoms: _58  and  _60
REMARK   20  A    between atoms: _60  and  _61
REMARK   21  A    between atoms: _60  and  _63
REMARK   22  A    between atoms: _63  and  _64
REMARK   23  A    between atoms: _70  and  _72
REMARK   24  A    between atoms: _72  and  _73
REMARK   25  A    between atoms: _72  and  _75
REMARK   26  A    between atoms: _75  and  _76
REMARK   27  A    between atoms: _79  and  _81
REMARK   28  A    between atoms: _81  and  _82
REMARK   29  A    between atoms: _81  and  _84
REMARK   30  A    between atoms: _86  and  _88
REMARK   31  A    between atoms: _88  and  _89
REMARK   32  A    between atoms: _88  and  _91
REMARK   33  A    between atoms: _91  and  _92
REMARK   34  A    between atoms: _95  and  _97
REMARK   35  A    between atoms: _97  and  _98
REMARK   36  A    between atoms: _97  and  _100
REMARK   37  A    between atoms: _100  and  _101
REMARK   38  A    between atoms: _103  and  _105
REMARK   39  A    between atoms: _105  and  _106
REMARK   40  A    between atoms: _105  and  _108
REMARK   41  A    between atoms: _111  and  _113
REMARK   42  A    between atoms: _113  and  _114
REMARK   43  A    between atoms: _113  and  _116
REMARK   44  A    between atoms: _116  and  _117
REMARK   45  A    between atoms: _123  and  _125
REMARK   46  A    between atoms: _125  and  _126
REMARK   47  A    between atoms: _125  and  _128
REMARK   48  A    between atoms: _128  and  _129
REMARK   49  A    between atoms: _133  and  _134
REMARK   50  A    between atoms: _139  and  _141
REMARK   51  A    between atoms: _141  and  _142
REMARK   52  A    between atoms: _141  and  _144
REMARK   53  A    between atoms: _144  and  _145
REMARK   54  A    between atoms: _148  and  _150
REMARK   55  A    between atoms: _150  and  _151
REMARK   56  A    between atoms: _150  and  _153
REMARK   57  A    between atoms: _153  and  _154
REMARK   58  A    between atoms: _154  and  _155
REMARK   59  A    between atoms: _155  and  _156
REMARK   60  A    between atoms: _156  and  _157
REMARK   61  A    between atoms: _161  and  _163
REMARK   62  A    between atoms: _163  and  _164
REMARK   63  A    between atoms: _167  and  _169
REMARK   64  A    between atoms: _169  and  _170
REMARK   65  A    between atoms: _169  and  _172
REMARK   66  A    between atoms: _172  and  _173
REMARK   67  A    between atoms: _176  and  _178
REMARK   68  A    between atoms: _178  and  _179
REMARK   69  A    between atoms: _178  and  _181
REMARK   70  A    between atoms: _181  and  _182
REMARK   71  A    between atoms: _185  and  _187
REMARK   72  A    between atoms: _187  and  _188
REMARK   73  A    between atoms: _190  and  _192
REMARK   74  A    between atoms: _192  and  _193
REMARK   75  A    between atoms: _192  and  _195
REMARK   76  A    between atoms: _195  and  _196
REMARK   77  A    between atoms: _201  and  _203
REMARK   78  A    between atoms: _203  and  _204
REMARK   79  A    between atoms: _203  and  _206
REMARK   80  A    between atoms: _206  and  _207
REMARK   81  A    between atoms: _210  and  _212
REMARK   82  A    between atoms: _212  and  _213
REMARK   83  A    between atoms: _212  and  _215
REMARK   84  A    between atoms: _215  and  _216
REMARK   85  A    between atoms: _216  and  _217
REMARK   86  A    between atoms: _217  and  _218
REMARK   87  A    between atoms: _218  and  _219
REMARK   88  A    between atoms: _223  and  _225
REMARK   89  A    between atoms: _225  and  _226
REMARK   90  A    between atoms: _225  and  _228
REMARK   91  A    between atoms: _228  and  _229
REMARK   92  A    between atoms: _229  and  _230
REMARK   93  A    between atoms: _230  and  _231
REMARK   94  A    between atoms: _231  and  _232
REMARK   95  A    between atoms: _236  and  _238
REMARK   96  A    between atoms: _238  and  _239
REMARK   97  A    between atoms: _241  and  _243
REMARK   98  A    between atoms: _243  and  _244
REMARK   99  A    between atoms: _243  and  _246
REMARK  100  A    between atoms: _246  and  _247
REMARK  101  A    between atoms: _250  and  _252
REMARK  102  A    between atoms: _252  and  _253
REMARK  103  A    between atoms: _256  and  _258
REMARK  104  A    between atoms: _258  and  _259
REMARK  105  A    between atoms: _258  and  _261
REMARK  106  A    between atoms: _261  and  _262
REMARK  107  A    between atoms: _265  and  _267
REMARK  108  A    between atoms: _267  and  _268
REMARK  109  A    between atoms: _267  and  _270
REMARK  110  A    between atoms: _270  and  _271
REMARK  111  A    between atoms: _271  and  _272
REMARK  112  A    between atoms: _274  and  _276
REMARK  113  A    between atoms: _276  and  _277
REMARK  114  A    between atoms: _276  and  _279
REMARK  115  A    between atoms: _279  and  _280
REMARK  116  A    between atoms: _290  and  _292
REMARK  117  A    between atoms: _292  and  _293
REMARK  118  A    between atoms: _292  and  _295
REMARK  119  A    between atoms: _295  and  _296
REMARK  120  A    between atoms: _299  and  _301
REMARK  121  A    between atoms: _301  and  _302
REMARK  122  A    between atoms: _301  and  _304
REMARK  123  A    between atoms: _304  and  _305
REMARK  124  A    between atoms: _305  and  _306
REMARK  125  A    between atoms: _306  and  _307
REMARK  126  A    between atoms: _307  and  _308
REMARK  127  A    between atoms: _312  and  _314
REMARK  128  A    between atoms: _314  and  _315
REMARK  129  A    between atoms: _314  and  _317
REMARK  130  A    between atoms: _317  and  _318
REMARK  131  A    between atoms: _318  and  _319
REMARK  132  A    between atoms: _319  and  _320
REMARK  133  A    between atoms: _329  and  _331
REMARK  134  A    between atoms: _331  and  _332
REMARK  135  A    between atoms: _334  and  _336
REMARK  136  A    between atoms: _336  and  _337
REMARK  137  A    between atoms: _336  and  _339
REMARK  138  A    between atoms: _339  and  _340
REMARK  139  A    between atoms: _343  and  _345
REMARK  140  A    between atoms: _345  and  _346
REMARK  141  A    between atoms: _345  and  _348
REMARK  142  A    between atoms: _348  and  _349
REMARK  143  A    between atoms: _349  and  _350
REMARK  144  A    between atoms: _350  and  _351
REMARK  145  A    between atoms: _360  and  _362
REMARK  146  A    between atoms: _362  and  _363
REMARK  147  A    between atoms: _362  and  _365
REMARK  148  A    between atoms: _365  and  _366
REMARK  149  A    between atoms: _372  and  _374
REMARK  150  A    between atoms: _374  and  _375
REMARK  151  A    between atoms: _374  and  _377
REMARK  152  A    between atoms: _377  and  _378
REMARK  153  A    between atoms: _381  and  _383
REMARK  154  A    between atoms: _383  and  _384
REMARK  155  A    between atoms: _383  and  _386
REMARK  156  A    between atoms: _386  and  _387
REMARK  157  A    between atoms: _387  and  _388
REMARK  158  A    between atoms: _393  and  _395
REMARK  159  A    between atoms: _395  and  _396
REMARK  160  A    between atoms: _395  and  _398
REMARK  161  A    between atoms: _398  and  _399
REMARK  162  A    between atoms: _405  and  _407
REMARK  163  A    between atoms: _407  and  _408
REMARK  164  A    between atoms: _407  and  _410
REMARK  165  A    between atoms: _410  and  _411
REMARK  166  A    between atoms: _414  and  _416
REMARK  167  A    between atoms: _416  and  _417
REMARK  168  A    between atoms: _416  and  _419
REMARK  169  A    between atoms: _419  and  _420
REMARK  170  A    between atoms: _423  and  _425
REMARK  171  A    between atoms: _425  and  _426
REMARK  172  A    between atoms: _425  and  _428
REMARK  173  A    between atoms: _428  and  _429
REMARK  174  A    between atoms: _429  and  _430
REMARK  175  A    between atoms: _430  and  _431
REMARK  176  A    between atoms: _440  and  _442
REMARK  177  A    between atoms: _442  and  _443
REMARK  178  A    between atoms: _442  and  _445
REMARK  179  A    between atoms: _445  and  _446
REMARK  180  A    between atoms: _451  and  _453
REMARK  181  A    between atoms: _453  and  _454
REMARK  182  A    between atoms: _457  and  _459
REMARK  183  A    between atoms: _459  and  _460
REMARK  184  A    between atoms: _459  and  _462
REMARK  185  A    between atoms: _462  and  _463
REMARK  186  A    between atoms: _466  and  _468
REMARK  187  A    between atoms: _468  and  _469
REMARK  188  A    between atoms: _472  and  _474
REMARK  189  A    between atoms: _474  and  _475
REMARK  190  A    between atoms: _474  and  _477
REMARK  191  A    between atoms: _477  and  _478
REMARK  192  A    between atoms: _483  and  _484
REMARK  193  A    between atoms: _486  and  _488
REMARK  194  A    between atoms: _488  and  _489
REMARK  195  A    between atoms: _492  and  _494
REMARK  196  A    between atoms: _494  and  _495
REMARK  197  A    between atoms: _494  and  _497
REMARK  198  A    between atoms: _497  and  _498
REMARK  199  A    between atoms: _501  and  _503
REMARK  200  A    between atoms: _503  and  _504
REMARK  201  A    between atoms: _503  and  _506
REMARK  202  A    between atoms: _506  and  _507
REMARK  203  A    between atoms: _507  and  _508
REMARK  204  A    between atoms: _508  and  _509
REMARK  205  A    between atoms: _509  and  _510
REMARK  206  A    between atoms: _514  and  _516
REMARK  207  A    between atoms: _516  and  _517
REMARK  208  A    between atoms: _516  and  _519
REMARK  209  A    between atoms: _519  and  _520
REMARK  210  A    between atoms: _525  and  _526
REMARK  211  A    between atoms: _528  and  _530
REMARK  212  A    between atoms: _530  and  _531
REMARK  213  A    between atoms: _530  and  _533
REMARK  214  A    between atoms: _533  and  _534
REMARK  215  A    between atoms: _539  and  _541
REMARK  216  A    between atoms: _541  and  _542
REMARK  217  A    between atoms: _544  and  _546
REMARK  218  A    between atoms: _546  and  _547
REMARK  219  A    between atoms: _546  and  _549
REMARK  220  A    between atoms: _549  and  _550
REMARK  221  A    between atoms: _553  and  _555
REMARK  222  A    between atoms: _555  and  _556
REMARK  223  A    between atoms: _555  and  _558
REMARK  224  A    between atoms: _561  and  _563
REMARK  225  A    between atoms: _563  and  _564
REMARK  226  A    between atoms: _563  and  _566
REMARK  227  A    between atoms: _566  and  _567
REMARK  228  A    between atoms: _570  and  _572
REMARK  229  A    between atoms: _572  and  _573
REMARK  230  A    between atoms: _572  and  _575
REMARK  231  A    between atoms: _575  and  _576
REMARK  232  A    between atoms: _582  and  _584
REMARK  233  A    between atoms: _584  and  _585
REMARK  234  A    between atoms: _584  and  _587
REMARK  235  A    between atoms: _587  and  _588
REMARK  236  A    between atoms: _588  and  _589
REMARK  237  A    between atoms: _594  and  _596
REMARK  238  A    between atoms: _596  and  _597
REMARK  239  A    between atoms: _600  and  _602
REMARK  240  A    between atoms: _602  and  _603
REMARK  241  A    between atoms: _606  and  _608
REMARK  242  A    between atoms: _608  and  _609
REMARK  243  A    between atoms: _608  and  _611
REMARK  244  A    between atoms: _611  and  _612
REMARK  245  A    between atoms: _615  and  _617
REMARK  246  A    between atoms: _617  and  _618
REMARK  247  A    between atoms: _617  and  _620
REMARK  248  A    between atoms: _620  and  _621
REMARK  249  A    between atoms: _626  and  _627
REMARK  250  A    between atoms: _629  and  _631
REMARK  251  A    between atoms: _631  and  _632
REMARK  252  A    between atoms: _635  and  _637
REMARK  253  A    between atoms: _637  and  _638
REMARK  254  A    between atoms: _642  and  _643
REMARK  255  A    between atoms: _648  and  _650
REMARK  256  A    between atoms: _650  and  _651
REMARK  257  A    between atoms: _650  and  _653
REMARK  258  A    between atoms: _653  and  _654
REMARK  259  A    between atoms: _660  and  _662
REMARK  260  A    between atoms: _662  and  _663
REMARK  261  A    between atoms: _662  and  _665
REMARK  262  A    between atoms: _665  and  _666
REMARK  263  A    between atoms: _669  and  _671
REMARK  264  A    between atoms: _671  and  _672
REMARK  265  A    between atoms: _671  and  _674
REMARK  266  A    between atoms: _674  and  _675
REMARK  267  A    between atoms: _681  and  _683
REMARK  268  A    between atoms: _683  and  _684
REMARK  269  A    between atoms: _683  and  _686
REMARK  270  A    between atoms: _686  and  _687
REMARK  271  A    between atoms: _692  and  _693
REMARK  272  A    between atoms: _695  and  _697
REMARK  273  A    between atoms: _697  and  _698
REMARK  274  A    between atoms: _697  and  _700
REMARK  275  A    between atoms: _700  and  _701
REMARK  276  A    between atoms: _706  and  _707
REMARK  277  A    between atoms: _709  and  _711
REMARK  278  A    between atoms: _711  and  _712
REMARK  279  A    between atoms: _711  and  _714
REMARK  280  A    between atoms: _714  and  _715
REMARK  281  A    between atoms: _715  and  _716
REMARK  282  A    between atoms: _716  and  _717
REMARK  283  A    between atoms: _717  and  _718
REMARK  284  A    between atoms: _722  and  _724
REMARK  285  A    between atoms: _724  and  _725
REMARK  286  A    between atoms: _724  and  _727
REMARK                            x       y       z     vdW  Elec       q    Type
REMARK                         _______ _______ _______ _____ _____    ______ ____
ROOT
ATOM      1  CA  ILE A   5      14.628  -1.345  24.741  0.00  0.00    +0.149 C 
ENDROOT
BRANCH   1   3
ATOM      2  C   PRO A   4      16.308  -0.633  26.384  0.00  0.00    +0.241 C 
ATOM      3  N   ILE A   5      15.187  -1.288  26.097  0.00  0.00    -0.297 N 
ATOM      4  H   ILE A   5      14.686  -1.780  26.864  0.00  0.00    +0.150 HD
ATOM      5  O   PRO A   4      17.017  -0.122  25.522  0.00  0.00    -0.273 OA
BRANCH   2  11
ATOM      6  C   THR A   3      14.723   0.096  28.970  0.00  0.00    +0.246 C 
ATOM      7  N   PRO A   4      15.628  -0.876  28.805  0.00  0.00    -0.272 N 
ATOM      8  CD  PRO A   4      15.760  -2.215  29.417  0.00  0.00    +0.094 C 
ATOM      9  CG  PRO A   4      17.210  -2.461  29.294  0.00  0.00    +0.024 C 
ATOM     10  CB  PRO A   4      17.708  -1.781  28.104  0.00  0.00    +0.031 C 
ATOM     11  CA  PRO A   4      16.729  -0.618  27.854  0.00  0.00    +0.152 C 
ATOM     12  O   THR A   3      14.827   1.159  28.346  0.00  0.00    -0.273 OA
BRANCH   6  13
ATOM     13  CA  THR A   3      13.533  -0.125  29.927  0.00  0.00    +0.176 C 
BRANCH  13  15
ATOM     14  C   PHE A   2      12.296  -1.724  28.607  0.00  0.00    +0.241 C 
ATOM     15  N   THR A   3      12.873  -1.417  29.767  0.00  0.00    -0.295 N 
ATOM     16  H   THR A   3      12.854  -2.095  30.556  0.00  0.00    +0.150 HD
ATOM     17  O   PHE A   2      12.343  -0.969  27.636  0.00  0.00    -0.273 OA
BRANCH  14  18
ATOM     18  CA  PHE A   2      11.553  -3.043  28.491  0.00  0.00    +0.153 C 
BRANCH  18  20
ATOM     19  C   VAL A   1      12.828  -4.698  29.708  0.00  0.00    +0.238 C 
ATOM     20  N   PHE A   2      11.720  -3.964  29.618  0.00  0.00    -0.297 N 
ATOM     21  H   PHE A   2      10.979  -4.044  30.343  0.00  0.00    +0.150 HD
ATOM     22  O   VAL A   1      13.760  -4.557  28.897  0.00  0.00    -0.274 OA
BRANCH  19  23
ATOM     23  CA  VAL A   1      12.914  -5.678  30.908  0.00  0.00    +0.145 C 
BRANCH  23  24
ATOM     24  CB  VAL A   1      12.501  -7.149  30.624  0.00  0.00    +0.025 C 
ATOM     25  CG2 VAL A   1      13.197  -8.046  31.643  0.00  0.00    +0.002 C 
ATOM     26  CG1 VAL A   1      12.824  -7.591  29.204  0.00  0.00    +0.002 C 
ENDBRANCH  23  24
BRANCH  23  27
ATOM     27  N   VAL A   1      12.138  -5.186  32.039  0.00  0.00    -0.238 NA
ATOM     28  H   VAL A   1      11.376  -5.767  32.442  0.00  0.00    +0.142 HD
ENDBRANCH  23  27
ENDBRANCH  19  23
ENDBRANCH  18  20
BRANCH  18  29
ATOM     29  CB  PHE A   2      10.068  -2.796  28.217  0.00  0.00    +0.055 C 
BRANCH  29  30
ATOM     30  CG  PHE A   2       9.342  -4.053  27.861  0.00  0.00    -0.020 A 
ATOM     31  CD2 PHE A   2       8.516  -4.666  28.792  0.00  0.00    -0.004 A 
ATOM     32  CE2 PHE A   2       7.855  -5.855  28.478  0.00  0.00    -0.000 A 
ATOM     33  CZ  PHE A   2       8.048  -6.445  27.250  0.00  0.00    -0.000 A 
ATOM     34  CE1 PHE A   2       8.894  -5.847  26.314  0.00  0.00    -0.000 A 
ATOM     35  CD1 PHE A   2       9.546  -4.664  26.632  0.00  0.00    -0.004 A 
ENDBRANCH  29  30
ENDBRANCH  18  29
ENDBRANCH  14  18
ENDBRANCH  13  15
BRANCH  13  36
ATOM     36  CB  THR A   3      13.888   0.111  31.412  0.00  0.00    +0.137 C 
ATOM     37  CG2 THR A   3      14.851   1.296  31.544  0.00  0.00    +0.034 C 
BRANCH  36  38
ATOM     38  OG1 THR A   3      12.666   0.319  32.149  0.00  0.00    -0.382 OA
ATOM     39  HG1 THR A   3      12.880   0.472  33.104  0.00  0.00    +0.210 HD
ENDBRANCH  36  38
ENDBRANCH  13  36
ENDBRANCH   6  13
ENDBRANCH   2  11
ENDBRANCH   1   3
BRANCH   1  40
ATOM     40  C   ILE A   5      14.100   0.037  24.364  0.00  0.00    +0.241 C 
ATOM     41  N   LYS A   6      13.287   0.589  25.268  0.00  0.00    -0.297 N 
ATOM     42  H   LYS A   6      12.964   0.018  26.075  0.00  0.00    +0.150 HD
ATOM     43  O   ILE A   5      14.432   0.608  23.313  0.00  0.00    -0.273 OA
BRANCH  41  44
ATOM     44  CA  LYS A   6      12.848   1.949  25.153  0.00  0.00    +0.149 C 
BRANCH  44  45
ATOM     45  C   LYS A   6      14.038   2.886  24.989  0.00  0.00    +0.241 C 
ATOM     46  N   ALA A   7      15.113   2.750  25.770  0.00  0.00    -0.297 N 
ATOM     47  H   ALA A   7      15.145   1.967  26.454  0.00  0.00    +0.150 HD
ATOM     48  O   LYS A   6      13.951   3.722  24.095  0.00  0.00    -0.273 OA
BRANCH  46  49
ATOM     49  CA  ALA A   7      16.256   3.678  25.691  0.00  0.00    +0.149 C 
ATOM     50  CB  ALA A   7      17.297   3.337  26.770  0.00  0.00    +0.031 C 
BRANCH  49  51
ATOM     51  C   ALA A   7      16.947   3.613  24.326  0.00  0.00    +0.241 C 
ATOM     52  O   ALA A   7      17.454   4.622  23.808  0.00  0.00    -0.273 OA
ATOM     53  N   ASP A   8      17.056   2.407  23.776  0.00  0.00    -0.297 N 
ATOM     54  H   ASP A   8      16.704   1.572  24.286  0.00  0.00    +0.150 HD
BRANCH  53  55
ATOM     55  CA  ASP A   8      17.671   2.248  22.452  0.00  0.00    +0.160 C 
BRANCH  55  56
ATOM     56  C   ASP A   8      16.909   3.025  21.373  0.00  0.00    +0.241 C 
ATOM     57  N   ILE A   9      15.603   2.787  21.349  0.00  0.00    -0.298 N 
ATOM     58  H   ILE A   9      15.177   2.207  22.100  0.00  0.00    +0.150 HD
ATOM     59  O   ASP A   8      17.503   3.784  20.580  0.00  0.00    -0.273 OA
BRANCH  57  60
ATOM     60  CA  ILE A   9      14.752   3.325  20.287  0.00  0.00    +0.137 C 
BRANCH  60  61
ATOM     61  C   ILE A   9      14.730   4.838  20.510  0.00  0.00    +0.227 C 
ATOM     62  O   ILE A   9      15.011   5.607  19.597  0.00  0.00    -0.286 OA
ENDBRANCH  60  61
BRANCH  60  63
ATOM     63  CB  ILE A   9      13.306   2.717  20.296  0.00  0.00    +0.026 C 
ATOM     64  CG2 ILE A   9      12.476   3.543  19.302  0.00  0.00    +0.002 C 
BRANCH  63  65
ATOM     65  CG1 ILE A   9      13.312   1.217  19.920  0.00  0.00    +0.002 C 
ATOM     66  CD1 ILE A   9      12.040   0.420  20.195  0.00  0.00    +0.000 C 
ENDBRANCH  63  65
ENDBRANCH  60  63
ENDBRANCH  57  60
ENDBRANCH  55  56
BRANCH  55  67
ATOM     67  CB  ASP A   8      17.833   0.759  22.066  0.00  0.00    +0.143 C 
BRANCH  67  68
ATOM     68  CG  ASP A   8      18.590   0.587  20.747  0.00  0.00    +0.367 C 
ATOM     69  OD2 ASP A   8      19.835   0.448  20.749  0.00  0.00    -0.246 OA
ATOM     70  OD1 ASP A   8      17.951   0.694  19.677  0.00  0.00    -0.246 OA
ENDBRANCH  67  68
ENDBRANCH  55  67
ENDBRANCH  53  55
ENDBRANCH  49  51
ENDBRANCH  46  49
ENDBRANCH  44  45
BRANCH  44  71
ATOM     71  CB  LYS A   6      11.916   2.357  26.308  0.00  0.00    +0.029 C 
BRANCH  71  72
ATOM     72  CG  LYS A   6      11.403   3.807  26.186  0.00  0.00    +0.000 C 
BRANCH  72  73
ATOM     73  CD  LYS A   6      10.719   4.237  27.481  0.00  0.00    -0.024 C 
BRANCH  73  74
ATOM     74  CE  LYS A   6      10.181   5.656  27.392  0.00  0.00    -0.086 C 
BRANCH  74  75
ATOM     75  NZ  LYS A   6      10.463   6.417  28.664  0.00  0.00    +0.380 N 
ATOM     76  HZ1 LYS A   6      10.006   5.934  29.464  0.00  0.00    -0.089 HD
ATOM     77  HZ2 LYS A   6      11.490   6.457  28.822  0.00  0.00    -0.089 HD
ATOM     78  HZ3 LYS A   6      10.086   7.383  28.579  0.00  0.00    -0.089 HD
ENDBRANCH  74  75
ENDBRANCH  73  74
ENDBRANCH  72  73
ENDBRANCH  71  72
ENDBRANCH  44  71
ENDBRANCH  41  44
ENDBRANCH   1  40
BRANCH   1  79
ATOM     79  CB  ILE A   5      13.517  -2.404  24.696  0.00  0.00    +0.027 C 
ATOM     80  CG2 ILE A   5      12.600  -2.164  23.516  0.00  0.00    +0.002 C 
BRANCH  79  81
ATOM     81  CG1 ILE A   5      14.143  -3.802  24.678  0.00  0.00    +0.002 C 
ATOM     82  CD1 ILE A   5      13.147  -4.911  24.994  0.00  0.00    +0.000 C 
ENDBRANCH  79  81
ENDBRANCH   1  79
TORSDOF 33
REMARK  Name = ../refined-set-2016/2euk/2euk_pocket.pdb
REMARK  286 active torsions:
REMARK  status: ('A' for Active; 'I' for Inactive)
REMARK    1  A    between atoms: _1  and  _5
REMARK    2  A    between atoms: _5  and  _6
REMARK    3  A    between atoms: _5  and  _8
REMARK    4  A    between atoms: _8  and  _9
REMARK    5  A    between atoms: _12  and  _14
REMARK    6  A    between atoms: _14  and  _15
REMARK    7  A    between atoms: _14  and  _17
REMARK    8  A    between atoms: _17  and  _18
REMARK    9  A    between atoms: _23  and  _25
REMARK   10  A    between atoms: _25  and  _26
REMARK   11  A    between atoms: _25  and  _28
REMARK   12  A    between atoms: _28  and  _29
REMARK   13  A    between atoms: _33  and  _34
REMARK   14  A    between atoms: _40  and  _41
REMARK   15  A    between atoms: _46  and  _48
REMARK   16  A    between atoms: _48  and  _49
REMARK   17  A    between atoms: _48  and  _51
REMARK   18  A    between atoms: _51  and  _52
REMARK   19  A    between atoms: _58  and  _60
REMARK   20  A    between atoms: _60  and  _61
REMARK   21  A    between atoms: _60  and  _63
REMARK   22  A    between atoms: _63  and  _64
REMARK   23  A    between atoms: _70  and  _72
REMARK   24  A    between atoms: _72  and  _73
REMARK   25  A    between atoms: _72  and  _75
REMARK   26  A    between atoms: _75  and  _76
REMARK   27  A    between atoms: _79  and  _81
REMARK   28  A    between atoms: _81  and  _82
REMARK   29  A    between atoms: _81  and  _84
REMARK   30  A    between atoms: _86  and  _88
REMARK   31  A    between atoms: _88  and  _89
REMARK   32  A    between atoms: _88  and  _91
REMARK   33  A    between atoms: _91  and  _92
REMARK   34  A    between atoms: _95  and  _97
REMARK   35  A    between atoms: _97  and  _98
REMARK   36  A    between atoms: _97  and  _100
REMARK   37  A    between atoms: _100  and  _101
REMARK   38  A    between atoms: _103  and  _105
REMARK   39  A    between atoms: _105  and  _106
REMARK   40  A    between atoms: _105  and  _108
REMARK   41  A    between atoms: _111  and  _113
REMARK   42  A    between atoms: _113  and  _114
REMARK   43  A    between atoms: _113  and  _116
REMARK   44  A    between atoms: _116  and  _117
REMARK   45  A    between atoms: _123  and  _125
REMARK   46  A    between atoms: _125  and  _126
REMARK   47  A    between atoms: _125  and  _128
REMARK   48  A    between atoms: _128  and  _129
REMARK   49  A    between atoms: _133  and  _134
REMARK   50  A    between atoms: _139  and  _141
REMARK   51  A    between atoms: _141  and  _142
REMARK   52  A    between atoms: _141  and  _144
REMARK   53  A    between atoms: _144  and  _145
REMARK   54  A    between atoms: _148  and  _150
REMARK   55  A    between atoms: _150  and  _151
REMARK   56  A    between atoms: _150  and  _153
REMARK   57  A    between atoms: _153  and  _154
REMARK   58  A    between atoms: _154  and  _155
REMARK   59  A    between atoms: _155  and  _156
REMARK   60  A    between atoms: _156  and  _157
REMARK   61  A    between atoms: _161  and  _163
REMARK   62  A    between atoms: _163  and  _164
REMARK   63  A    between atoms: _167  and  _169
REMARK   64  A    between atoms: _169  and  _170
REMARK   65  A    between atoms: _169  and  _172
REMARK   66  A    between atoms: _172  and  _173
REMARK   67  A    between atoms: _176  and  _178
REMARK   68  A    between atoms: _178  and  _179
REMARK   69  A    between atoms: _178  and  _181
REMARK   70  A    between atoms: _181  and  _182
REMARK   71  A    between atoms: _185  and  _187
REMARK   72  A    between atoms: _187  and  _188
REMARK   73  A    between atoms: _190  and  _192
REMARK   74  A    between atoms: _192  and  _193
REMARK   75  A    between atoms: _192  and  _195
REMARK   76  A    between atoms: _195  and  _196
REMARK   77  A    between atoms: _201  and  _203
REMARK   78  A    between atoms: _203  and  _204
REMARK   79  A    between atoms: _203  and  _206
REMARK   80  A    between atoms: _206  and  _207
REMARK   81  A    between atoms: _210  and  _212
REMARK   82  A    between atoms: _212  and  _213
REMARK   83  A    between atoms: _212  and  _215
REMARK   84  A    between atoms: _215  and  _216
REMARK   85  A    between atoms: _216  and  _217
REMARK   86  A    between atoms: _217  and  _218
REMARK   87  A    between atoms: _218  and  _219
REMARK   88  A    between atoms: _223  and  _225
REMARK   89  A    between atoms: _225  and  _226
REMARK   90  A    between atoms: _225  and  _228
REMARK   91  A    between atoms: _228  and  _229
REMARK   92  A    between atoms: _229  and  _230
REMARK   93  A    between atoms: _230  and  _231
REMARK   94  A    between atoms: _231  and  _232
REMARK   95  A    between atoms: _236  and  _238
REMARK   96  A    between atoms: _238  and  _239
REMARK   97  A    between atoms: _241  and  _243
REMARK   98  A    between atoms: _243  and  _244
REMARK   99  A    between atoms: _243  and  _246
REMARK  100  A    between atoms: _246  and  _247
REMARK  101  A    between atoms: _250  and  _252
REMARK  102  A    between atoms: _252  and  _253
REMARK  103  A    between atoms: _256  and  _258
REMARK  104  A    between atoms: _258  and  _259
REMARK  105  A    between atoms: _258  and  _261
REMARK  106  A    between atoms: _261  and  _262
REMARK  107  A    between atoms: _265  and  _267
REMARK  108  A    between atoms: _267  and  _268
REMARK  109  A    between atoms: _267  and  _270
REMARK  110  A    between atoms: _270  and  _271
REMARK  111  A    between atoms: _271  and  _272
REMARK  112  A    between atoms: _274  and  _276
REMARK  113  A    between atoms: _276  and  _277
REMARK  114  A    between atoms: _276  and  _279
REMARK  115  A    between atoms: _279  and  _280
REMARK  116  A    between atoms: _290  and  _292
REMARK  117  A    between atoms: _292  and  _293
REMARK  118  A    between atoms: _292  and  _295
REMARK  119  A    between atoms: _295  and  _296
REMARK  120  A    between atoms: _299  and  _301
REMARK  121  A    between atoms: _301  and  _302
REMARK  122  A    between atoms: _301  and  _304
REMARK  123  A    between atoms: _304  and  _305
REMARK  124  A    between atoms: _305  and  _306
REMARK  125  A    between atoms: _306  and  _307
REMARK  126  A    between atoms: _307  and  _308
REMARK  127  A    between atoms: _312  and  _314
REMARK  128  A    between atoms: _314  and  _315
REMARK  129  A    between atoms: _314  and  _317
REMARK  130  A    between atoms: _317  and  _318
REMARK  131  A    between atoms: _318  and  _319
REMARK  132  A    between atoms: _319  and  _320
REMARK  133  A    between atoms: _329  and  _331
REMARK  134  A    between atoms: _331  and  _332
REMARK  135  A    between atoms: _334  and  _336
REMARK  136  A    between atoms: _336  and  _337
REMARK  137  A    between atoms: _336  and  _339
REMARK  138  A    between atoms: _339  and  _340
REMARK  139  A    between atoms: _343  and  _345
REMARK  140  A    between atoms: _345  and  _346
REMARK  141  A    between atoms: _345  and  _348
REMARK  142  A    between atoms: _348  and  _349
REMARK  143  A    between atoms: _349  and  _350
REMARK  144  A    between atoms: _350  and  _351
REMARK  145  A    between atoms: _360  and  _362
REMARK  146  A    between atoms: _362  and  _363
REMARK  147  A    between atoms: _362  and  _365
REMARK  148  A    between atoms: _365  and  _366
REMARK  149  A    between atoms: _372  and  _374
REMARK  150  A    between atoms: _374  and  _375
REMARK  151  A    between atoms: _374  and  _377
REMARK  152  A    between atoms: _377  and  _378
REMARK  153  A    between atoms: _381  and  _383
REMARK  154  A    between atoms: _383  and  _384
REMARK  155  A    between atoms: _383  and  _386
REMARK  156  A    between atoms: _386  and  _387
REMARK  157  A    between atoms: _387  and  _388
REMARK  158  A    between atoms: _393  and  _395
REMARK  159  A    between atoms: _395  and  _396
REMARK  160  A    between atoms: _395  and  _398
REMARK  161  A    between atoms: _398  and  _399
REMARK  162  A    between atoms: _405  and  _407
REMARK  163  A    between atoms: _407  and  _408
REMARK  164  A    between atoms: _407  and  _410
REMARK  165  A    between atoms: _410  and  _411
REMARK  166  A    between atoms: _414  and  _416
REMARK  167  A    between atoms: _416  and  _417
REMARK  168  A    between atoms: _416  and  _419
REMARK  169  A    between atoms: _419  and  _420
REMARK  170  A    between atoms: _423  and  _425
REMARK  171  A    between atoms: _425  and  _426
REMARK  172  A    between atoms: _425  and  _428
REMARK  173  A    between atoms: _428  and  _429
REMARK  174  A    between atoms: _429  and  _430
REMARK  175  A    between atoms: _430  and  _431
REMARK  176  A    between atoms: _440  and  _442
REMARK  177  A    between atoms: _442  and  _443
REMARK  178  A    between atoms: _442  and  _445
REMARK  179  A    between atoms: _445  and  _446
REMARK  180  A    between atoms: _451  and  _453
REMARK  181  A    between atoms: _453  and  _454
REMARK  182  A    between atoms: _457  and  _459
REMARK  183  A    between atoms: _459  and  _460
REMARK  184  A    between atoms: _459  and  _462
REMARK  185  A    between atoms: _462  and  _463
REMARK  186  A    between atoms: _466  and  _468
REMARK  187  A    between atoms: _468  and  _469
REMARK  188  A    between atoms: _472  and  _474
REMARK  189  A    between atoms: _474  and  _475
REMARK  190  A    between atoms: _474  and  _477
REMARK  191  A    between atoms: _477  and  _478
REMARK  192  A    between atoms: _483  and  _484
REMARK  193  A    between atoms: _486  and  _488
REMARK  194  A    between atoms: _488  and  _489
REMARK  195  A    between atoms: _492  and  _494
REMARK  196  A    between atoms: _494  and  _495
REMARK  197  A    between atoms: _494  and  _497
REMARK  198  A    between atoms: _497  and  _498
REMARK  199  A    between atoms: _501  and  _503
REMARK  200  A    between atoms: _503  and  _504
REMARK  201  A    between atoms: _503  and  _506
REMARK  202  A    between atoms: _506  and  _507
REMARK  203  A    between atoms: _507  and  _508
REMARK  204  A    between atoms: _508  and  _509
REMARK  205  A    between atoms: _509  and  _510
REMARK  206  A    between atoms: _514  and  _516
REMARK  207  A    between atoms: _516  and  _517
REMARK  208  A    between atoms: _516  and  _519
REMARK  209  A    between atoms: _519  and  _520
REMARK  210  A    between atoms: _525  and  _526
REMARK  211  A    between atoms: _528  and  _530
REMARK  212  A    between atoms: _530  and  _531
REMARK  213  A    between atoms: _530  and  _533
REMARK  214  A    between atoms: _533  and  _534
REMARK  215  A    between atoms: _539  and  _541
REMARK  216  A    between atoms: _541  and  _542
REMARK  217  A    between atoms: _544  and  _546
REMARK  218  A    between atoms: _546  and  _547
REMARK  219  A    between atoms: _546  and  _549
REMARK  220  A    between atoms: _549  and  _550
REMARK  221  A    between atoms: _553  and  _555
REMARK  222  A    between atoms: _555  and  _556
REMARK  223  A    between atoms: _555  and  _558
REMARK  224  A    between atoms: _561  and  _563
REMARK  225  A    between atoms: _563  and  _564
REMARK  226  A    between atoms: _563  and  _566
REMARK  227  A    between atoms: _566  and  _567
REMARK  228  A    between atoms: _570  and  _572
REMARK  229  A    between atoms: _572  and  _573
REMARK  230  A    between atoms: _572  and  _575
REMARK  231  A    between atoms: _575  and  _576
REMARK  232  A    between atoms: _582  and  _584
REMARK  233  A    between atoms: _584  and  _585
REMARK  234  A    between atoms: _584  and  _587
REMARK  235  A    between atoms: _587  and  _588
REMARK  236  A    between atoms: _588  and  _589
REMARK  237  A    between atoms: _594  and  _596
REMARK  238  A    between atoms: _596  and  _597
REMARK  239  A    between atoms: _600  and  _602
REMARK  240  A    between atoms: _602  and  _603
REMARK  241  A    between atoms: _606  and  _608
REMARK  242  A    between atoms: _608  and  _609
REMARK  243  A    between atoms: _608  and  _611
REMARK  244  A    between atoms: _611  and  _612
REMARK  245  A    between atoms: _615  and  _617
REMARK  246  A    between atoms: _617  and  _618
REMARK  247  A    between atoms: _617  and  _620
REMARK  248  A    between atoms: _620  and  _621
REMARK  249  A    between atoms: _626  and  _627
REMARK  250  A    between atoms: _629  and  _631
REMARK  251  A    between atoms: _631  and  _632
REMARK  252  A    between atoms: _635  and  _637
REMARK  253  A    between atoms: _637  and  _638
REMARK  254  A    between atoms: _642  and  _643
REMARK  255  A    between atoms: _648  and  _650
REMARK  256  A    between atoms: _650  and  _651
REMARK  257  A    between atoms: _650  and  _653
REMARK  258  A    between atoms: _653  and  _654
REMARK  259  A    between atoms: _660  and  _662
REMARK  260  A    between atoms: _662  and  _663
REMARK  261  A    between atoms: _662  and  _665
REMARK  262  A    between atoms: _665  and  _666
REMARK  263  A    between atoms: _669  and  _671
REMARK  264  A    between atoms: _671  and  _672
REMARK  265  A    between atoms: _671  and  _674
REMARK  266  A    between atoms: _674  and  _675
REMARK  267  A    between atoms: _681  and  _683
REMARK  268  A    between atoms: _683  and  _684
REMARK  269  A    between atoms: _683  and  _686
REMARK  270  A    between atoms: _686  and  _687
REMARK  271  A    between atoms: _692  and  _693
REMARK  272  A    between atoms: _695  and  _697
REMARK  273  A    between atoms: _697  and  _698
REMARK  274  A    between atoms: _697  and  _700
REMARK  275  A    between atoms: _700  and  _701
REMARK  276  A    between atoms: _706  and  _707
REMARK  277  A    between atoms: _709  and  _711
REMARK  278  A    between atoms: _711  and  _712
REMARK  279  A    between atoms: _711  and  _714
REMARK  280  A    between atoms: _714  and  _715
REMARK  281  A    between atoms: _715  and  _716
REMARK  282  A    between atoms: _716  and  _717
REMARK  283  A    between atoms: _717  and  _718
REMARK  284  A    between atoms: _722  and  _724
REMARK  285  A    between atoms: _724  and  _725
REMARK  286  A    between atoms: _724  and  _727
REMARK                            x       y       z     vdW  Elec       q    Type
REMARK                         _______ _______ _______ _____ _____    ______ ____
ROOT
ATOM      1  CA  ASN A   2      18.244   6.809  18.128  0.00  0.00    +0.158 C 
ENDROOT
BRANCH   1   4
ATOM      2  C   GLY A   1      18.498   7.470  20.442  0.00  0.00    +0.240 C 
ATOM      3  O   GLY A   1      19.158   8.459  20.111  0.00  0.00    -0.274 OA
ATOM      4  N   ASN A   2      18.059   6.569  19.557  0.00  0.00    -0.297 N 
ATOM      5  H   ASN A   2      17.588   5.701  19.884  0.00  0.00    +0.150 HD
BRANCH   2   6
ATOM      6  CA  GLY A   1      18.172   7.196  21.904  0.00  0.00    +0.169 C 
BRANCH   6   7
ATOM      7  N   GLY A   1      16.812   6.667  22.126  0.00  0.00    -0.236 NA
ATOM      8  H   GLY A   1      16.685   5.752  22.603  0.00  0.00    +0.142 HD
ENDBRANCH   6   7
ENDBRANCH   2   6
ENDBRANCH   1   4
BRANCH   1   9
ATOM      9  C   ASN A   2      17.405   7.934  17.573  0.00  0.00    +0.241 C 
ATOM     10  N   ILE A   3      16.135   8.019  17.956  0.00  0.00    -0.298 N 
ATOM     11  H   ILE A   3      15.708   7.236  18.491  0.00  0.00    +0.150 HD
ATOM     12  O   ASN A   2      17.892   8.726  16.793  0.00  0.00    -0.273 OA
BRANCH  10  13
ATOM     13  CA  ILE A   3      15.331   9.194  17.638  0.00  0.00    +0.137 C 
BRANCH  13  14
ATOM     14  CB  ILE A   3      13.921   9.040  18.307  0.00  0.00    +0.026 C 
ATOM     15  CG2 ILE A   3      13.102  10.318  18.123  0.00  0.00    +0.002 C 
BRANCH  14  16
ATOM     16  CG1 ILE A   3      13.174   7.831  17.708  0.00  0.00    +0.002 C 
ATOM     17  CD1 ILE A   3      11.833   7.485  18.460  0.00  0.00    +0.000 C 
ENDBRANCH  14  16
ENDBRANCH  13  14
BRANCH  13  18
ATOM     18  C   ILE A   3      16.009  10.500  18.081  0.00  0.00    +0.227 C 
ATOM     19  O   ILE A   3      16.117  11.475  17.327  0.00  0.00    -0.286 OA
ENDBRANCH  13  18
ENDBRANCH  10  13
ENDBRANCH   1   9
BRANCH   1  20
ATOM     20  CB  ASN A   2      18.002   5.518  17.372  0.00  0.00    +0.114 C 
BRANCH  20  21
ATOM     21  CG  ASN A   2      19.162   4.565  17.517  0.00  0.00    +0.222 C 
ATOM     22  ND2 ASN A   2      18.861   3.290  17.756  0.00  0.00    -0.329 N 
ATOM     23 HD21 ASN A   2      17.867   2.999  17.851  0.00  0.00    +0.145 HD
ATOM     24 HD22 ASN A   2      19.620   2.585  17.848  0.00  0.00    +0.145 HD
ATOM     25  OD1 ASN A   2      20.322   4.950  17.398  0.00  0.00    -0.275 OA
ENDBRANCH  20  21
ENDBRANCH   1  20
TORSDOF 10
REMARK  Name = ../refined-set-2016/2euk/2euk_pocket.pdb
REMARK  286 active torsions:
REMARK  status: ('A' for Active; 'I' for Inactive)
REMARK    1  A    between atoms: _1  and  _5
REMARK    2  A    between atoms: _5  and  _6
REMARK    3  A    between atoms: _5  and  _8
REMARK    4  A    between atoms: _8  and  _9
REMARK    5  A    between atoms: _12  and  _14
REMARK    6  A    between atoms: _14  and  _15
REMARK    7  A    between atoms: _14  and  _17
REMARK    8  A    between atoms: _17  and  _18
REMARK    9  A    between atoms: _23  and  _25
REMARK   10  A    between atoms: _25  and  _26
REMARK   11  A    between atoms: _25  and  _28
REMARK   12  A    between atoms: _28  and  _29
REMARK   13  A    between atoms: _33  and  _34
REMARK   14  A    between atoms: _40  and  _41
REMARK   15  A    between atoms: _46  and  _48
REMARK   16  A    between atoms: _48  and  _49
REMARK   17  A    between atoms: _48  and  _51
REMARK   18  A    between atoms: _51  and  _52
REMARK   19  A    between atoms: _58  and  _60
REMARK   20  A    between atoms: _60  and  _61
REMARK   21  A    between atoms: _60  and  _63
REMARK   22  A    between atoms: _63  and  _64
REMARK   23  A    between atoms: _70  and  _72
REMARK   24  A    between atoms: _72  and  _73
REMARK   25  A    between atoms: _72  and  _75
REMARK   26  A    between atoms: _75  and  _76
REMARK   27  A    between atoms: _79  and  _81
REMARK   28  A    between atoms: _81  and  _82
REMARK   29  A    between atoms: _81  and  _84
REMARK   30  A    between atoms: _86  and  _88
REMARK   31  A    between atoms: _88  and  _89
REMARK   32  A    between atoms: _88  and  _91
REMARK   33  A    between atoms: _91  and  _92
REMARK   34  A    between atoms: _95  and  _97
REMARK   35  A    between atoms: _97  and  _98
REMARK   36  A    between atoms: _97  and  _100
REMARK   37  A    between atoms: _100  and  _101
REMARK   38  A    between atoms: _103  and  _105
REMARK   39  A    between atoms: _105  and  _106
REMARK   40  A    between atoms: _105  and  _108
REMARK   41  A    between atoms: _111  and  _113
REMARK   42  A    between atoms: _113  and  _114
REMARK   43  A    between atoms: _113  and  _116
REMARK   44  A    between atoms: _116  and  _117
REMARK   45  A    between atoms: _123  and  _125
REMARK   46  A    between atoms: _125  and  _126
REMARK   47  A    between atoms: _125  and  _128
REMARK   48  A    between atoms: _128  and  _129
REMARK   49  A    between atoms: _133  and  _134
REMARK   50  A    between atoms: _139  and  _141
REMARK   51  A    between atoms: _141  and  _142
REMARK   52  A    between atoms: _141  and  _144
REMARK   53  A    between atoms: _144  and  _145
REMARK   54  A    between atoms: _148  and  _150
REMARK   55  A    between atoms: _150  and  _151
REMARK   56  A    between atoms: _150  and  _153
REMARK   57  A    between atoms: _153  and  _154
REMARK   58  A    between atoms: _154  and  _155
REMARK   59  A    between atoms: _155  and  _156
REMARK   60  A    between atoms: _156  and  _157
REMARK   61  A    between atoms: _161  and  _163
REMARK   62  A    between atoms: _163  and  _164
REMARK   63  A    between atoms: _167  and  _169
REMARK   64  A    between atoms: _169  and  _170
REMARK   65  A    between atoms: _169  and  _172
REMARK   66  A    between atoms: _172  and  _173
REMARK   67  A    between atoms: _176  and  _178
REMARK   68  A    between atoms: _178  and  _179
REMARK   69  A    between atoms: _178  and  _181
REMARK   70  A    between atoms: _181  and  _182
REMARK   71  A    between atoms: _185  and  _187
REMARK   72  A    between atoms: _187  and  _188
REMARK   73  A    between atoms: _190  and  _192
REMARK   74  A    between atoms: _192  and  _193
REMARK   75  A    between atoms: _192  and  _195
REMARK   76  A    between atoms: _195  and  _196
REMARK   77  A    between atoms: _201  and  _203
REMARK   78  A    between atoms: _203  and  _204
REMARK   79  A    between atoms: _203  and  _206
REMARK   80  A    between atoms: _206  and  _207
REMARK   81  A    between atoms: _210  and  _212
REMARK   82  A    between atoms: _212  and  _213
REMARK   83  A    between atoms: _212  and  _215
REMARK   84  A    between atoms: _215  and  _216
REMARK   85  A    between atoms: _216  and  _217
REMARK   86  A    between atoms: _217  and  _218
REMARK   87  A    between atoms: _218  and  _219
REMARK   88  A    between atoms: _223  and  _225
REMARK   89  A    between atoms: _225  and  _226
REMARK   90  A    between atoms: _225  and  _228
REMARK   91  A    between atoms: _228  and  _229
REMARK   92  A    between atoms: _229  and  _230
REMARK   93  A    between atoms: _230  and  _231
REMARK   94  A    between atoms: _231  and  _232
REMARK   95  A    between atoms: _236  and  _238
REMARK   96  A    between atoms: _238  and  _239
REMARK   97  A    between atoms: _241  and  _243
REMARK   98  A    between atoms: _243  and  _244
REMARK   99  A    between atoms: _243  and  _246
REMARK  100  A    between atoms: _246  and  _247
REMARK  101  A    between atoms: _250  and  _252
REMARK  102  A    between atoms: _252  and  _253
REMARK  103  A    between atoms: _256  and  _258
REMARK  104  A    between atoms: _258  and  _259
REMARK  105  A    between atoms: _258  and  _261
REMARK  106  A    between atoms: _261  and  _262
REMARK  107  A    between atoms: _265  and  _267
REMARK  108  A    between atoms: _267  and  _268
REMARK  109  A    between atoms: _267  and  _270
REMARK  110  A    between atoms: _270  and  _271
REMARK  111  A    between atoms: _271  and  _272
REMARK  112  A    between atoms: _274  and  _276
REMARK  113  A    between atoms: _276  and  _277
REMARK  114  A    between atoms: _276  and  _279
REMARK  115  A    between atoms: _279  and  _280
REMARK  116  A    between atoms: _290  and  _292
REMARK  117  A    between atoms: _292  and  _293
REMARK  118  A    between atoms: _292  and  _295
REMARK  119  A    between atoms: _295  and  _296
REMARK  120  A    between atoms: _299  and  _301
REMARK  121  A    between atoms: _301  and  _302
REMARK  122  A    between atoms: _301  and  _304
REMARK  123  A    between atoms: _304  and  _305
REMARK  124  A    between atoms: _305  and  _306
REMARK  125  A    between atoms: _306  and  _307
REMARK  126  A    between atoms: _307  and  _308
REMARK  127  A    between atoms: _312  and  _314
REMARK  128  A    between atoms: _314  and  _315
REMARK  129  A    between atoms: _314  and  _317
REMARK  130  A    between atoms: _317  and  _318
REMARK  131  A    between atoms: _318  and  _319
REMARK  132  A    between atoms: _319  and  _320
REMARK  133  A    between atoms: _329  and  _331
REMARK  134  A    between atoms: _331  and  _332
REMARK  135  A    between atoms: _334  and  _336
REMARK  136  A    between atoms: _336  and  _337
REMARK  137  A    between atoms: _336  and  _339
REMARK  138  A    between atoms: _339  and  _340
REMARK  139  A    between atoms: _343  and  _345
REMARK  140  A    between atoms: _345  and  _346
REMARK  141  A    between atoms: _345  and  _348
REMARK  142  A    between atoms: _348  and  _349
REMARK  143  A    between atoms: _349  and  _350
REMARK  144  A    between atoms: _350  and  _351
REMARK  145  A    between atoms: _360  and  _362
REMARK  146  A    between atoms: _362  and  _363
REMARK  147  A    between atoms: _362  and  _365
REMARK  148  A    between atoms: _365  and  _366
REMARK  149  A    between atoms: _372  and  _374
REMARK  150  A    between atoms: _374  and  _375
REMARK  151  A    between atoms: _374  and  _377
REMARK  152  A    between atoms: _377  and  _378
REMARK  153  A    between atoms: _381  and  _383
REMARK  154  A    between atoms: _383  and  _384
REMARK  155  A    between atoms: _383  and  _386
REMARK  156  A    between atoms: _386  and  _387
REMARK  157  A    between atoms: _387  and  _388
REMARK  158  A    between atoms: _393  and  _395
REMARK  159  A    between atoms: _395  and  _396
REMARK  160  A    between atoms: _395  and  _398
REMARK  161  A    between atoms: _398  and  _399
REMARK  162  A    between atoms: _405  and  _407
REMARK  163  A    between atoms: _407  and  _408
REMARK  164  A    between atoms: _407  and  _410
REMARK  165  A    between atoms: _410  and  _411
REMARK  166  A    between atoms: _414  and  _416
REMARK  167  A    between atoms: _416  and  _417
REMARK  168  A    between atoms: _416  and  _419
REMARK  169  A    between atoms: _419  and  _420
REMARK  170  A    between atoms: _423  and  _425
REMARK  171  A    between atoms: _425  and  _426
REMARK  172  A    between atoms: _425  and  _428
REMARK  173  A    between atoms: _428  and  _429
REMARK  174  A    between atoms: _429  and  _430
REMARK  175  A    between atoms: _430  and  _431
REMARK  176  A    between atoms: _440  and  _442
REMARK  177  A    between atoms: _442  and  _443
REMARK  178  A    between atoms: _442  and  _445
REMARK  179  A    between atoms: _445  and  _446
REMARK  180  A    between atoms: _451  and  _453
REMARK  181  A    between atoms: _453  and  _454
REMARK  182  A    between atoms: _457  and  _459
REMARK  183  A    between atoms: _459  and  _460
REMARK  184  A    between atoms: _459  and  _462
REMARK  185  A    between atoms: _462  and  _463
REMARK  186  A    between atoms: _466  and  _468
REMARK  187  A    between atoms: _468  and  _469
REMARK  188  A    between atoms: _472  and  _474
REMARK  189  A    between atoms: _474  and  _475
REMARK  190  A    between atoms: _474  and  _477
REMARK  191  A    between atoms: _477  and  _478
REMARK  192  A    between atoms: _483  and  _484
REMARK  193  A    between atoms: _486  and  _488
REMARK  194  A    between atoms: _488  and  _489
REMARK  195  A    between atoms: _492  and  _494
REMARK  196  A    between atoms: _494  and  _495
REMARK  197  A    between atoms: _494  and  _497
REMARK  198  A    between atoms: _497  and  _498
REMARK  199  A    between atoms: _501  and  _503
REMARK  200  A    between atoms: _503  and  _504
REMARK  201  A    between atoms: _503  and  _506
REMARK  202  A    between atoms: _506  and  _507
REMARK  203  A    between atoms: _507  and  _508
REMARK  204  A    between atoms: _508  and  _509
REMARK  205  A    between atoms: _509  and  _510
REMARK  206  A    between atoms: _514  and  _516
REMARK  207  A    between atoms: _516  and  _517
REMARK  208  A    between atoms: _516  and  _519
REMARK  209  A    between atoms: _519  and  _520
REMARK  210  A    between atoms: _525  and  _526
REMARK  211  A    between atoms: _528  and  _530
REMARK  212  A    between atoms: _530  and  _531
REMARK  213  A    between atoms: _530  and  _533
REMARK  214  A    between atoms: _533  and  _534
REMARK  215  A    between atoms: _539  and  _541
REMARK  216  A    between atoms: _541  and  _542
REMARK  217  A    between atoms: _544  and  _546
REMARK  218  A    between atoms: _546  and  _547
REMARK  219  A    between atoms: _546  and  _549
REMARK  220  A    between atoms: _549  and  _550
REMARK  221  A    between atoms: _553  and  _555
REMARK  222  A    between atoms: _555  and  _556
REMARK  223  A    between atoms: _555  and  _558
REMARK  224  A    between atoms: _561  and  _563
REMARK  225  A    between atoms: _563  and  _564
REMARK  226  A    between atoms: _563  and  _566
REMARK  227  A    between atoms: _566  and  _567
REMARK  228  A    between atoms: _570  and  _572
REMARK  229  A    between atoms: _572  and  _573
REMARK  230  A    between atoms: _572  and  _575
REMARK  231  A    between atoms: _575  and  _576
REMARK  232  A    between atoms: _582  and  _584
REMARK  233  A    between atoms: _584  and  _585
REMARK  234  A    between atoms: _584  and  _587
REMARK  235  A    between atoms: _587  and  _588
REMARK  236  A    between atoms: _588  and  _589
REMARK  237  A    between atoms: _594  and  _596
REMARK  238  A    between atoms: _596  and  _597
REMARK  239  A    between atoms: _600  and  _602
REMARK  240  A    between atoms: _602  and  _603
REMARK  241  A    between atoms: _606  and  _608
REMARK  242  A    between atoms: _608  and  _609
REMARK  243  A    between atoms: _608  and  _611
REMARK  244  A    between atoms: _611  and  _612
REMARK  245  A    between atoms: _615  and  _617
REMARK  246  A    between atoms: _617  and  _618
REMARK  247  A    between atoms: _617  and  _620
REMARK  248  A    between atoms: _620  and  _621
REMARK  249  A    between atoms: _626  and  _627
REMARK  250  A    between atoms: _629  and  _631
REMARK  251  A    between atoms: _631  and  _632
REMARK  252  A    between atoms: _635  and  _637
REMARK  253  A    between atoms: _637  and  _638
REMARK  254  A    between atoms: _642  and  _643
REMARK  255  A    between atoms: _648  and  _650
REMARK  256  A    between atoms: _650  and  _651
REMARK  257  A    between atoms: _650  and  _653
REMARK  258  A    between atoms: _653  and  _654
REMARK  259  A    between atoms: _660  and  _662
REMARK  260  A    between atoms: _662  and  _663
REMARK  261  A    between atoms: _662  and  _665
REMARK  262  A    between atoms: _665  and  _666
REMARK  263  A    between atoms: _669  and  _671
REMARK  264  A    between atoms: _671  and  _672
REMARK  265  A    between atoms: _671  and  _674
REMARK  266  A    between atoms: _674  and  _675
REMARK  267  A    between atoms: _681  and  _683
REMARK  268  A    between atoms: _683  and  _684
REMARK  269  A    between atoms: _683  and  _686
REMARK  270  A    between atoms: _686  and  _687
REMARK  271  A    between atoms: _692  and  _693
REMARK  272  A    between atoms: _695  and  _697
REMARK  273  A    between atoms: _697  and  _698
REMARK  274  A    between atoms: _697  and  _700
REMARK  275  A    between atoms: _700  and  _701
REMARK  276  A    between atoms: _706  and  _707
REMARK  277  A    between atoms: _709  and  _711
REMARK  278  A    between atoms: _711  and  _712
REMARK  279  A    between atoms: _711  and  _714
REMARK  280  A    between atoms: _714  and  _715
REMARK  281  A    between atoms: _715  and  _716
REMARK  282  A    between atoms: _716  and  _717
REMARK  283  A    between atoms: _717  and  _718
REMARK  284  A    between atoms: _722  and  _724
REMARK  285  A    between atoms: _724  and  _725
REMARK  286  A    between atoms: _724  and  _727
REMARK                            x       y       z     vdW  Elec       q    Type
REMARK                         _______ _______ _______ _____ _____    ______ ____
ROOT
ATOM      1  CG  LYS A   1      21.979   9.357  18.842  0.00  0.00    -0.000 C 
ENDROOT
BRANCH   1   2
ATOM      2  CB  LYS A   1      21.207   9.827  17.583  0.00  0.00    +0.025 C 
BRANCH   2   3
ATOM      3  CA  LYS A   1      20.461  11.166  17.783  0.00  0.00    +0.133 C 
BRANCH   3   4
ATOM      4  N   LYS A   1      19.258  11.011  18.602  0.00  0.00    -0.239 NA
ATOM      5  H   LYS A   1      18.991  10.048  18.890  0.00  0.00    +0.142 HD
ENDBRANCH   3   4
BRANCH   3   6
ATOM      6  C   LYS A   1      20.098  11.810  16.439  0.00  0.00    +0.224 C 
ATOM      7  O   LYS A   1      20.814  12.695  15.936  0.00  0.00    -0.287 OA
ENDBRANCH   3   6
ENDBRANCH   2   3
ENDBRANCH   1   2
BRANCH   1   8
ATOM      8  CD  LYS A   1      22.816   8.093  18.642  0.00  0.00    -0.024 C 
BRANCH   8   9
ATOM      9  CE  LYS A   1      23.210   7.465  19.997  0.00  0.00    -0.086 C 
BRANCH   9  10
ATOM     10  NZ  LYS A   1      23.815   6.108  19.786  0.00  0.00    +0.380 N 
ATOM     11  HZ1 LYS A   1      24.075   5.699  20.706  0.00  0.00    -0.089 HD
ATOM     12  HZ2 LYS A   1      23.124   5.491  19.314  0.00  0.00    -0.089 HD
ATOM     13  HZ3 LYS A   1      24.664   6.197  19.193  0.00  0.00    -0.089 HD
ENDBRANCH   9  10
ENDBRANCH   8   9
ENDBRANCH   1   8
TORSDOF 7
REMARK  Name = ../refined-set-2016/2euk/2euk_pocket.pdb
REMARK  286 active torsions:
REMARK  status: ('A' for Active; 'I' for Inactive)
REMARK    1  A    between atoms: _1  and  _5
REMARK    2  A    between atoms: _5  and  _6
REMARK    3  A    between atoms: _5  and  _8
REMARK    4  A    between atoms: _8  and  _9
REMARK    5  A    between atoms: _12  and  _14
REMARK    6  A    between atoms: _14  and  _15
REMARK    7  A    between atoms: _14  and  _17
REMARK    8  A    between atoms: _17  and  _18
REMARK    9  A    between atoms: _23  and  _25
REMARK   10  A    between atoms: _25  and  _26
REMARK   11  A    between atoms: _25  and  _28
REMARK   12  A    between atoms: _28  and  _29
REMARK   13  A    between atoms: _33  and  _34
REMARK   14  A    between atoms: _40  and  _41
REMARK   15  A    between atoms: _46  and  _48
REMARK   16  A    between atoms: _48  and  _49
REMARK   17  A    between atoms: _48  and  _51
REMARK   18  A    between atoms: _51  and  _52
REMARK   19  A    between atoms: _58  and  _60
REMARK   20  A    between atoms: _60  and  _61
REMARK   21  A    between atoms: _60  and  _63
REMARK   22  A    between atoms: _63  and  _64
REMARK   23  A    between atoms: _70  and  _72
REMARK   24  A    between atoms: _72  and  _73
REMARK   25  A    between atoms: _72  and  _75
REMARK   26  A    between atoms: _75  and  _76
REMARK   27  A    between atoms: _79  and  _81
REMARK   28  A    between atoms: _81  and  _82
REMARK   29  A    between atoms: _81  and  _84
REMARK   30  A    between atoms: _86  and  _88
REMARK   31  A    between atoms: _88  and  _89
REMARK   32  A    between atoms: _88  and  _91
REMARK   33  A    between atoms: _91  and  _92
REMARK   34  A    between atoms: _95  and  _97
REMARK   35  A    between atoms: _97  and  _98
REMARK   36  A    between atoms: _97  and  _100
REMARK   37  A    between atoms: _100  and  _101
REMARK   38  A    between atoms: _103  and  _105
REMARK   39  A    between atoms: _105  and  _106
REMARK   40  A    between atoms: _105  and  _108
REMARK   41  A    between atoms: _111  and  _113
REMARK   42  A    between atoms: _113  and  _114
REMARK   43  A    between atoms: _113  and  _116
REMARK   44  A    between atoms: _116  and  _117
REMARK   45  A    between atoms: _123  and  _125
REMARK   46  A    between atoms: _125  and  _126
REMARK   47  A    between atoms: _125  and  _128
REMARK   48  A    between atoms: _128  and  _129
REMARK   49  A    between atoms: _133  and  _134
REMARK   50  A    between atoms: _139  and  _141
REMARK   51  A    between atoms: _141  and  _142
REMARK   52  A    between atoms: _141  and  _144
REMARK   53  A    between atoms: _144  and  _145
REMARK   54  A    between atoms: _148  and  _150
REMARK   55  A    between atoms: _150  and  _151
REMARK   56  A    between atoms: _150  and  _153
REMARK   57  A    between atoms: _153  and  _154
REMARK   58  A    between atoms: _154  and  _155
REMARK   59  A    between atoms: _155  and  _156
REMARK   60  A    between atoms: _156  and  _157
REMARK   61  A    between atoms: _161  and  _163
REMARK   62  A    between atoms: _163  and  _164
REMARK   63  A    between atoms: _167  and  _169
REMARK   64  A    between atoms: _169  and  _170
REMARK   65  A    between atoms: _169  and  _172
REMARK   66  A    between atoms: _172  and  _173
REMARK   67  A    between atoms: _176  and  _178
REMARK   68  A    between atoms: _178  and  _179
REMARK   69  A    between atoms: _178  and  _181
REMARK   70  A    between atoms: _181  and  _182
REMARK   71  A    between atoms: _185  and  _187
REMARK   72  A    between atoms: _187  and  _188
REMARK   73  A    between atoms: _190  and  _192
REMARK   74  A    between atoms: _192  and  _193
REMARK   75  A    between atoms: _192  and  _195
REMARK   76  A    between atoms: _195  and  _196
REMARK   77  A    between atoms: _201  and  _203
REMARK   78  A    between atoms: _203  and  _204
REMARK   79  A    between atoms: _203  and  _206
REMARK   80  A    between atoms: _206  and  _207
REMARK   81  A    between atoms: _210  and  _212
REMARK   82  A    between atoms: _212  and  _213
REMARK   83  A    between atoms: _212  and  _215
REMARK   84  A    between atoms: _215  and  _216
REMARK   85  A    between atoms: _216  and  _217
REMARK   86  A    between atoms: _217  and  _218
REMARK   87  A    between atoms: _218  and  _219
REMARK   88  A    between atoms: _223  and  _225
REMARK   89  A    between atoms: _225  and  _226
REMARK   90  A    between atoms: _225  and  _228
REMARK   91  A    between atoms: _228  and  _229
REMARK   92  A    between atoms: _229  and  _230
REMARK   93  A    between atoms: _230  and  _231
REMARK   94  A    between atoms: _231  and  _232
REMARK   95  A    between atoms: _236  and  _238
REMARK   96  A    between atoms: _238  and  _239
REMARK   97  A    between atoms: _241  and  _243
REMARK   98  A    between atoms: _243  and  _244
REMARK   99  A    between atoms: _243  and  _246
REMARK  100  A    between atoms: _246  and  _247
REMARK  101  A    between atoms: _250  and  _252
REMARK  102  A    between atoms: _252  and  _253
REMARK  103  A    between atoms: _256  and  _258
REMARK  104  A    between atoms: _258  and  _259
REMARK  105  A    between atoms: _258  and  _261
REMARK  106  A    between atoms: _261  and  _262
REMARK  107  A    between atoms: _265  and  _267
REMARK  108  A    between atoms: _267  and  _268
REMARK  109  A    between atoms: _267  and  _270
REMARK  110  A    between atoms: _270  and  _271
REMARK  111  A    between atoms: _271  and  _272
REMARK  112  A    between atoms: _274  and  _276
REMARK  113  A    between atoms: _276  and  _277
REMARK  114  A    between atoms: _276  and  _279
REMARK  115  A    between atoms: _279  and  _280
REMARK  116  A    between atoms: _290  and  _292
REMARK  117  A    between atoms: _292  and  _293
REMARK  118  A    between atoms: _292  and  _295
REMARK  119  A    between atoms: _295  and  _296
REMARK  120  A    between atoms: _299  and  _301
REMARK  121  A    between atoms: _301  and  _302
REMARK  122  A    between atoms: _301  and  _304
REMARK  123  A    between atoms: _304  and  _305
REMARK  124  A    between atoms: _305  and  _306
REMARK  125  A    between atoms: _306  and  _307
REMARK  126  A    between atoms: _307  and  _308
REMARK  127  A    between atoms: _312  and  _314
REMARK  128  A    between atoms: _314  and  _315
REMARK  129  A    between atoms: _314  and  _317
REMARK  130  A    between atoms: _317  and  _318
REMARK  131  A    between atoms: _318  and  _319
REMARK  132  A    between atoms: _319  and  _320
REMARK  133  A    between atoms: _329  and  _331
REMARK  134  A    between atoms: _331  and  _332
REMARK  135  A    between atoms: _334  and  _336
REMARK  136  A    between atoms: _336  and  _337
REMARK  137  A    between atoms: _336  and  _339
REMARK  138  A    between atoms: _339  and  _340
REMARK  139  A    between atoms: _343  and  _345
REMARK  140  A    between atoms: _345  and  _346
REMARK  141  A    between atoms: _345  and  _348
REMARK  142  A    between atoms: _348  and  _349
REMARK  143  A    between atoms: _349  and  _350
REMARK  144  A    between atoms: _350  and  _351
REMARK  145  A    between atoms: _360  and  _362
REMARK  146  A    between atoms: _362  and  _363
REMARK  147  A    between atoms: _362  and  _365
REMARK  148  A    between atoms: _365  and  _366
REMARK  149  A    between atoms: _372  and  _374
REMARK  150  A    between atoms: _374  and  _375
REMARK  151  A    between atoms: _374  and  _377
REMARK  152  A    between atoms: _377  and  _378
REMARK  153  A    between atoms: _381  and  _383
REMARK  154  A    between atoms: _383  and  _384
REMARK  155  A    between atoms: _383  and  _386
REMARK  156  A    between atoms: _386  and  _387
REMARK  157  A    between atoms: _387  and  _388
REMARK  158  A    between atoms: _393  and  _395
REMARK  159  A    between atoms: _395  and  _396
REMARK  160  A    between atoms: _395  and  _398
REMARK  161  A    between atoms: _398  and  _399
REMARK  162  A    between atoms: _405  and  _407
REMARK  163  A    between atoms: _407  and  _408
REMARK  164  A    between atoms: _407  and  _410
REMARK  165  A    between atoms: _410  and  _411
REMARK  166  A    between atoms: _414  and  _416
REMARK  167  A    between atoms: _416  and  _417
REMARK  168  A    between atoms: _416  and  _419
REMARK  169  A    between atoms: _419  and  _420
REMARK  170  A    between atoms: _423  and  _425
REMARK  171  A    between atoms: _425  and  _426
REMARK  172  A    between atoms: _425  and  _428
REMARK  173  A    between atoms: _428  and  _429
REMARK  174  A    between atoms: _429  and  _430
REMARK  175  A    between atoms: _430  and  _431
REMARK  176  A    between atoms: _440  and  _442
REMARK  177  A    between atoms: _442  and  _443
REMARK  178  A    between atoms: _442  and  _445
REMARK  179  A    between atoms: _445  and  _446
REMARK  180  A    between atoms: _451  and  _453
REMARK  181  A    between atoms: _453  and  _454
REMARK  182  A    between atoms: _457  and  _459
REMARK  183  A    between atoms: _459  and  _460
REMARK  184  A    between atoms: _459  and  _462
REMARK  185  A    between atoms: _462  and  _463
REMARK  186  A    between atoms: _466  and  _468
REMARK  187  A    between atoms: _468  and  _469
REMARK  188  A    between atoms: _472  and  _474
REMARK  189  A    between atoms: _474  and  _475
REMARK  190  A    between atoms: _474  and  _477
REMARK  191  A    between atoms: _477  and  _478
REMARK  192  A    between atoms: _483  and  _484
REMARK  193  A    between atoms: _486  and  _488
REMARK  194  A    between atoms: _488  and  _489
REMARK  195  A    between atoms: _492  and  _494
REMARK  196  A    between atoms: _494  and  _495
REMARK  197  A    between atoms: _494  and  _497
REMARK  198  A    between atoms: _497  and  _498
REMARK  199  A    between atoms: _501  and  _503
REMARK  200  A    between atoms: _503  and  _504
REMARK  201  A    between atoms: _503  and  _506
REMARK  202  A    between atoms: _506  and  _507
REMARK  203  A    between atoms: _507  and  _508
REMARK  204  A    between atoms: _508  and  _509
REMARK  205  A    between atoms: _509  and  _510
REMARK  206  A    between atoms: _514  and  _516
REMARK  207  A    between atoms: _516  and  _517
REMARK  208  A    between atoms: _516  and  _519
REMARK  209  A    between atoms: _519  and  _520
REMARK  210  A    between atoms: _525  and  _526
REMARK  211  A    between atoms: _528  and  _530
REMARK  212  A    between atoms: _530  and  _531
REMARK  213  A    between atoms: _530  and  _533
REMARK  214  A    between atoms: _533  and  _534
REMARK  215  A    between atoms: _539  and  _541
REMARK  216  A    between atoms: _541  and  _542
REMARK  217  A    between atoms: _544  and  _546
REMARK  218  A    between atoms: _546  and  _547
REMARK  219  A    between atoms: _546  and  _549
REMARK  220  A    between atoms: _549  and  _550
REMARK  221  A    between atoms: _553  and  _555
REMARK  222  A    between atoms: _555  and  _556
REMARK  223  A    between atoms: _555  and  _558
REMARK  224  A    between atoms: _561  and  _563
REMARK  225  A    between atoms: _563  and  _564
REMARK  226  A    between atoms: _563  and  _566
REMARK  227  A    between atoms: _566  and  _567
REMARK  228  A    between atoms: _570  and  _572
REMARK  229  A    between atoms: _572  and  _573
REMARK  230  A    between atoms: _572  and  _575
REMARK  231  A    between atoms: _575  and  _576
REMARK  232  A    between atoms: _582  and  _584
REMARK  233  A    between atoms: _584  and  _585
REMARK  234  A    between atoms: _584  and  _587
REMARK  235  A    between atoms: _587  and  _588
REMARK  236  A    between atoms: _588  and  _589
REMARK  237  A    between atoms: _594  and  _596
REMARK  238  A    between atoms: _596  and  _597
REMARK  239  A    between atoms: _600  and  _602
REMARK  240  A    between atoms: _602  and  _603
REMARK  241  A    between atoms: _606  and  _608
REMARK  242  A    between atoms: _608  and  _609
REMARK  243  A    between atoms: _608  and  _611
REMARK  244  A    between atoms: _611  and  _612
REMARK  245  A    between atoms: _615  and  _617
REMARK  246  A    between atoms: _617  and  _618
REMARK  247  A    between atoms: _617  and  _620
REMARK  248  A    between atoms: _620  and  _621
REMARK  249  A    between atoms: _626  and  _627
REMARK  250  A    between atoms: _629  and  _631
REMARK  251  A    between atoms: _631  and  _632
REMARK  252  A    between atoms: _635  and  _637
REMARK  253  A    between atoms: _637  and  _638
REMARK  254  A    between atoms: _642  and  _643
REMARK  255  A    between atoms: _648  and  _650
REMARK  256  A    between atoms: _650  and  _651
REMARK  257  A    between atoms: _650  and  _653
REMARK  258  A    between atoms: _653  and  _654
REMARK  259  A    between atoms: _660  and  _662
REMARK  260  A    between atoms: _662  and  _663
REMARK  261  A    between atoms: _662  and  _665
REMARK  262  A    between atoms: _665  and  _666
REMARK  263  A    between atoms: _669  and  _671
REMARK  264  A    between atoms: _671  and  _672
REMARK  265  A    between atoms: _671  and  _674
REMARK  266  A    between atoms: _674  and  _675
REMARK  267  A    between atoms: _681  and  _683
REMARK  268  A    between atoms: _683  and  _684
REMARK  269  A    between atoms: _683  and  _686
REMARK  270  A    between atoms: _686  and  _687
REMARK  271  A    between atoms: _692  and  _693
REMARK  272  A    between atoms: _695  and  _697
REMARK  273  A    between atoms: _697  and  _698
REMARK  274  A    between atoms: _697  and  _700
REMARK  275  A    between atoms: _700  and  _701
REMARK  276  A    between atoms: _706  and  _707
REMARK  277  A    between atoms: _709  and  _711
REMARK  278  A    between atoms: _711  and  _712
REMARK  279  A    between atoms: _711  and  _714
REMARK  280  A    between atoms: _714  and  _715
REMARK  281  A    between atoms: _715  and  _716
REMARK  282  A    between atoms: _716  and  _717
REMARK  283  A    between atoms: _717  and  _718
REMARK  284  A    between atoms: _722  and  _724
REMARK  285  A    between atoms: _724  and  _725
REMARK  286  A    between atoms: _724  and  _727
REMARK                            x       y       z     vdW  Elec       q    Type
REMARK                         _______ _______ _______ _____ _____    ______ ____
ROOT
ATOM      1  CG  LYS A   1      29.667   2.004  11.917  0.00  0.00    -0.000 C 
ENDROOT
BRANCH   1   2
ATOM      2  CB  LYS A   1      29.905   2.808  10.635  0.00  0.00    +0.025 C 
BRANCH   2   3
ATOM      3  CA  LYS A   1      28.847   3.884  10.387  0.00  0.00    +0.133 C 
BRANCH   3   4
ATOM      4  N   LYS A   1      28.743   4.162   8.942  0.00  0.00    -0.239 NA
ATOM      5  H   LYS A   1      29.552   3.949   8.324  0.00  0.00    +0.142 HD
ENDBRANCH   3   4
BRANCH   3   6
ATOM      6  C   LYS A   1      29.079   5.130  11.261  0.00  0.00    +0.224 C 
ATOM      7  O   LYS A   1      29.986   5.153  12.117  0.00  0.00    -0.287 OA
ENDBRANCH   3   6
ENDBRANCH   2   3
ENDBRANCH   1   2
BRANCH   1   8
ATOM      8  CD  LYS A   1      30.670   0.857  12.053  0.00  0.00    -0.024 C 
BRANCH   8   9
ATOM      9  CE  LYS A   1      30.390   0.087  13.323  0.00  0.00    -0.086 C 
BRANCH   9  10
ATOM     10  NZ  LYS A   1      31.171  -1.194  13.316  0.00  0.00    +0.380 N 
ATOM     11  HZ1 LYS A   1      30.977  -1.722  14.191  0.00  0.00    -0.089 HD
ATOM     12  HZ2 LYS A   1      32.187  -0.979  13.258  0.00  0.00    -0.089 HD
ATOM     13  HZ3 LYS A   1      30.889  -1.766  12.495  0.00  0.00    -0.089 HD
ENDBRANCH   9  10
ENDBRANCH   8   9
ENDBRANCH   1   8
TORSDOF 7
REMARK  Name = ../refined-set-2016/2euk/2euk_pocket.pdb
REMARK  286 active torsions:
REMARK  status: ('A' for Active; 'I' for Inactive)
REMARK    1  A    between atoms: _1  and  _5
REMARK    2  A    between atoms: _5  and  _6
REMARK    3  A    between atoms: _5  and  _8
REMARK    4  A    between atoms: _8  and  _9
REMARK    5  A    between atoms: _12  and  _14
REMARK    6  A    between atoms: _14  and  _15
REMARK    7  A    between atoms: _14  and  _17
REMARK    8  A    between atoms: _17  and  _18
REMARK    9  A    between atoms: _23  and  _25
REMARK   10  A    between atoms: _25  and  _26
REMARK   11  A    between atoms: _25  and  _28
REMARK   12  A    between atoms: _28  and  _29
REMARK   13  A    between atoms: _33  and  _34
REMARK   14  A    between atoms: _40  and  _41
REMARK   15  A    between atoms: _46  and  _48
REMARK   16  A    between atoms: _48  and  _49
REMARK   17  A    between atoms: _48  and  _51
REMARK   18  A    between atoms: _51  and  _52
REMARK   19  A    between atoms: _58  and  _60
REMARK   20  A    between atoms: _60  and  _61
REMARK   21  A    between atoms: _60  and  _63
REMARK   22  A    between atoms: _63  and  _64
REMARK   23  A    between atoms: _70  and  _72
REMARK   24  A    between atoms: _72  and  _73
REMARK   25  A    between atoms: _72  and  _75
REMARK   26  A    between atoms: _75  and  _76
REMARK   27  A    between atoms: _79  and  _81
REMARK   28  A    between atoms: _81  and  _82
REMARK   29  A    between atoms: _81  and  _84
REMARK   30  A    between atoms: _86  and  _88
REMARK   31  A    between atoms: _88  and  _89
REMARK   32  A    between atoms: _88  and  _91
REMARK   33  A    between atoms: _91  and  _92
REMARK   34  A    between atoms: _95  and  _97
REMARK   35  A    between atoms: _97  and  _98
REMARK   36  A    between atoms: _97  and  _100
REMARK   37  A    between atoms: _100  and  _101
REMARK   38  A    between atoms: _103  and  _105
REMARK   39  A    between atoms: _105  and  _106
REMARK   40  A    between atoms: _105  and  _108
REMARK   41  A    between atoms: _111  and  _113
REMARK   42  A    between atoms: _113  and  _114
REMARK   43  A    between atoms: _113  and  _116
REMARK   44  A    between atoms: _116  and  _117
REMARK   45  A    between atoms: _123  and  _125
REMARK   46  A    between atoms: _125  and  _126
REMARK   47  A    between atoms: _125  and  _128
REMARK   48  A    between atoms: _128  and  _129
REMARK   49  A    between atoms: _133  and  _134
REMARK   50  A    between atoms: _139  and  _141
REMARK   51  A    between atoms: _141  and  _142
REMARK   52  A    between atoms: _141  and  _144
REMARK   53  A    between atoms: _144  and  _145
REMARK   54  A    between atoms: _148  and  _150
REMARK   55  A    between atoms: _150  and  _151
REMARK   56  A    between atoms: _150  and  _153
REMARK   57  A    between atoms: _153  and  _154
REMARK   58  A    between atoms: _154  and  _155
REMARK   59  A    between atoms: _155  and  _156
REMARK   60  A    between atoms: _156  and  _157
REMARK   61  A    between atoms: _161  and  _163
REMARK   62  A    between atoms: _163  and  _164
REMARK   63  A    between atoms: _167  and  _169
REMARK   64  A    between atoms: _169  and  _170
REMARK   65  A    between atoms: _169  and  _172
REMARK   66  A    between atoms: _172  and  _173
REMARK   67  A    between atoms: _176  and  _178
REMARK   68  A    between atoms: _178  and  _179
REMARK   69  A    between atoms: _178  and  _181
REMARK   70  A    between atoms: _181  and  _182
REMARK   71  A    between atoms: _185  and  _187
REMARK   72  A    between atoms: _187  and  _188
REMARK   73  A    between atoms: _190  and  _192
REMARK   74  A    between atoms: _192  and  _193
REMARK   75  A    between atoms: _192  and  _195
REMARK   76  A    between atoms: _195  and  _196
REMARK   77  A    between atoms: _201  and  _203
REMARK   78  A    between atoms: _203  and  _204
REMARK   79  A    between atoms: _203  and  _206
REMARK   80  A    between atoms: _206  and  _207
REMARK   81  A    between atoms: _210  and  _212
REMARK   82  A    between atoms: _212  and  _213
REMARK   83  A    between atoms: _212  and  _215
REMARK   84  A    between atoms: _215  and  _216
REMARK   85  A    between atoms: _216  and  _217
REMARK   86  A    between atoms: _217  and  _218
REMARK   87  A    between atoms: _218  and  _219
REMARK   88  A    between atoms: _223  and  _225
REMARK   89  A    between atoms: _225  and  _226
REMARK   90  A    between atoms: _225  and  _228
REMARK   91  A    between atoms: _228  and  _229
REMARK   92  A    between atoms: _229  and  _230
REMARK   93  A    between atoms: _230  and  _231
REMARK   94  A    between atoms: _231  and  _232
REMARK   95  A    between atoms: _236  and  _238
REMARK   96  A    between atoms: _238  and  _239
REMARK   97  A    between atoms: _241  and  _243
REMARK   98  A    between atoms: _243  and  _244
REMARK   99  A    between atoms: _243  and  _246
REMARK  100  A    between atoms: _246  and  _247
REMARK  101  A    between atoms: _250  and  _252
REMARK  102  A    between atoms: _252  and  _253
REMARK  103  A    between atoms: _256  and  _258
REMARK  104  A    between atoms: _258  and  _259
REMARK  105  A    between atoms: _258  and  _261
REMARK  106  A    between atoms: _261  and  _262
REMARK  107  A    between atoms: _265  and  _267
REMARK  108  A    between atoms: _267  and  _268
REMARK  109  A    between atoms: _267  and  _270
REMARK  110  A    between atoms: _270  and  _271
REMARK  111  A    between atoms: _271  and  _272
REMARK  112  A    between atoms: _274  and  _276
REMARK  113  A    between atoms: _276  and  _277
REMARK  114  A    between atoms: _276  and  _279
REMARK  115  A    between atoms: _279  and  _280
REMARK  116  A    between atoms: _290  and  _292
REMARK  117  A    between atoms: _292  and  _293
REMARK  118  A    between atoms: _292  and  _295
REMARK  119  A    between atoms: _295  and  _296
REMARK  120  A    between atoms: _299  and  _301
REMARK  121  A    between atoms: _301  and  _302
REMARK  122  A    between atoms: _301  and  _304
REMARK  123  A    between atoms: _304  and  _305
REMARK  124  A    between atoms: _305  and  _306
REMARK  125  A    between atoms: _306  and  _307
REMARK  126  A    between atoms: _307  and  _308
REMARK  127  A    between atoms: _312  and  _314
REMARK  128  A    between atoms: _314  and  _315
REMARK  129  A    between atoms: _314  and  _317
REMARK  130  A    between atoms: _317  and  _318
REMARK  131  A    between atoms: _318  and  _319
REMARK  132  A    between atoms: _319  and  _320
REMARK  133  A    between atoms: _329  and  _331
REMARK  134  A    between atoms: _331  and  _332
REMARK  135  A    between atoms: _334  and  _336
REMARK  136  A    between atoms: _336  and  _337
REMARK  137  A    between atoms: _336  and  _339
REMARK  138  A    between atoms: _339  and  _340
REMARK  139  A    between atoms: _343  and  _345
REMARK  140  A    between atoms: _345  and  _346
REMARK  141  A    between atoms: _345  and  _348
REMARK  142  A    between atoms: _348  and  _349
REMARK  143  A    between atoms: _349  and  _350
REMARK  144  A    between atoms: _350  and  _351
REMARK  145  A    between atoms: _360  and  _362
REMARK  146  A    between atoms: _362  and  _363
REMARK  147  A    between atoms: _362  and  _365
REMARK  148  A    between atoms: _365  and  _366
REMARK  149  A    between atoms: _372  and  _374
REMARK  150  A    between atoms: _374  and  _375
REMARK  151  A    between atoms: _374  and  _377
REMARK  152  A    between atoms: _377  and  _378
REMARK  153  A    between atoms: _381  and  _383
REMARK  154  A    between atoms: _383  and  _384
REMARK  155  A    between atoms: _383  and  _386
REMARK  156  A    between atoms: _386  and  _387
REMARK  157  A    between atoms: _387  and  _388
REMARK  158  A    between atoms: _393  and  _395
REMARK  159  A    between atoms: _395  and  _396
REMARK  160  A    between atoms: _395  and  _398
REMARK  161  A    between atoms: _398  and  _399
REMARK  162  A    between atoms: _405  and  _407
REMARK  163  A    between atoms: _407  and  _408
REMARK  164  A    between atoms: _407  and  _410
REMARK  165  A    between atoms: _410  and  _411
REMARK  166  A    between atoms: _414  and  _416
REMARK  167  A    between atoms: _416  and  _417
REMARK  168  A    between atoms: _416  and  _419
REMARK  169  A    between atoms: _419  and  _420
REMARK  170  A    between atoms: _423  and  _425
REMARK  171  A    between atoms: _425  and  _426
REMARK  172  A    between atoms: _425  and  _428
REMARK  173  A    between atoms: _428  and  _429
REMARK  174  A    between atoms: _429  and  _430
REMARK  175  A    between atoms: _430  and  _431
REMARK  176  A    between atoms: _440  and  _442
REMARK  177  A    between atoms: _442  and  _443
REMARK  178  A    between atoms: _442  and  _445
REMARK  179  A    between atoms: _445  and  _446
REMARK  180  A    between atoms: _451  and  _453
REMARK  181  A    between atoms: _453  and  _454
REMARK  182  A    between atoms: _457  and  _459
REMARK  183  A    between atoms: _459  and  _460
REMARK  184  A    between atoms: _459  and  _462
REMARK  185  A    between atoms: _462  and  _463
REMARK  186  A    between atoms: _466  and  _468
REMARK  187  A    between atoms: _468  and  _469
REMARK  188  A    between atoms: _472  and  _474
REMARK  189  A    between atoms: _474  and  _475
REMARK  190  A    between atoms: _474  and  _477
REMARK  191  A    between atoms: _477  and  _478
REMARK  192  A    between atoms: _483  and  _484
REMARK  193  A    between atoms: _486  and  _488
REMARK  194  A    between atoms: _488  and  _489
REMARK  195  A    between atoms: _492  and  _494
REMARK  196  A    between atoms: _494  and  _495
REMARK  197  A    between atoms: _494  and  _497
REMARK  198  A    between atoms: _497  and  _498
REMARK  199  A    between atoms: _501  and  _503
REMARK  200  A    between atoms: _503  and  _504
REMARK  201  A    between atoms: _503  and  _506
REMARK  202  A    between atoms: _506  and  _507
REMARK  203  A    between atoms: _507  and  _508
REMARK  204  A    between atoms: _508  and  _509
REMARK  205  A    between atoms: _509  and  _510
REMARK  206  A    between atoms: _514  and  _516
REMARK  207  A    between atoms: _516  and  _517
REMARK  208  A    between atoms: _516  and  _519
REMARK  209  A    between atoms: _519  and  _520
REMARK  210  A    between atoms: _525  and  _526
REMARK  211  A    between atoms: _528  and  _530
REMARK  212  A    between atoms: _530  and  _531
REMARK  213  A    between atoms: _530  and  _533
REMARK  214  A    between atoms: _533  and  _534
REMARK  215  A    between atoms: _539  and  _541
REMARK  216  A    between atoms: _541  and  _542
REMARK  217  A    between atoms: _544  and  _546
REMARK  218  A    between atoms: _546  and  _547
REMARK  219  A    between atoms: _546  and  _549
REMARK  220  A    between atoms: _549  and  _550
REMARK  221  A    between atoms: _553  and  _555
REMARK  222  A    between atoms: _555  and  _556
REMARK  223  A    between atoms: _555  and  _558
REMARK  224  A    between atoms: _561  and  _563
REMARK  225  A    between atoms: _563  and  _564
REMARK  226  A    between atoms: _563  and  _566
REMARK  227  A    between atoms: _566  and  _567
REMARK  228  A    between atoms: _570  and  _572
REMARK  229  A    between atoms: _572  and  _573
REMARK  230  A    between atoms: _572  and  _575
REMARK  231  A    between atoms: _575  and  _576
REMARK  232  A    between atoms: _582  and  _584
REMARK  233  A    between atoms: _584  and  _585
REMARK  234  A    between atoms: _584  and  _587
REMARK  235  A    between atoms: _587  and  _588
REMARK  236  A    between atoms: _588  and  _589
REMARK  237  A    between atoms: _594  and  _596
REMARK  238  A    between atoms: _596  and  _597
REMARK  239  A    between atoms: _600  and  _602
REMARK  240  A    between atoms: _602  and  _603
REMARK  241  A    between atoms: _606  and  _608
REMARK  242  A    between atoms: _608  and  _609
REMARK  243  A    between atoms: _608  and  _611
REMARK  244  A    between atoms: _611  and  _612
REMARK  245  A    between atoms: _615  and  _617
REMARK  246  A    between atoms: _617  and  _618
REMARK  247  A    between atoms: _617  and  _620
REMARK  248  A    between atoms: _620  and  _621
REMARK  249  A    between atoms: _626  and  _627
REMARK  250  A    between atoms: _629  and  _631
REMARK  251  A    between atoms: _631  and  _632
REMARK  252  A    between atoms: _635  and  _637
REMARK  253  A    between atoms: _637  and  _638
REMARK  254  A    between atoms: _642  and  _643
REMARK  255  A    between atoms: _648  and  _650
REMARK  256  A    between atoms: _650  and  _651
REMARK  257  A    between atoms: _650  and  _653
REMARK  258  A    between atoms: _653  and  _654
REMARK  259  A    between atoms: _660  and  _662
REMARK  260  A    between atoms: _662  and  _663
REMARK  261  A    between atoms: _662  and  _665
REMARK  262  A    between atoms: _665  and  _666
REMARK  263  A    between atoms: _669  and  _671
REMARK  264  A    between atoms: _671  and  _672
REMARK  265  A    between atoms: _671  and  _674
REMARK  266  A    between atoms: _674  and  _675
REMARK  267  A    between atoms: _681  and  _683
REMARK  268  A    between atoms: _683  and  _684
REMARK  269  A    between atoms: _683  and  _686
REMARK  270  A    between atoms: _686  and  _687
REMARK  271  A    between atoms: _692  and  _693
REMARK  272  A    between atoms: _695  and  _697
REMARK  273  A    between atoms: _697  and  _698
REMARK  274  A    between atoms: _697  and  _700
REMARK  275  A    between atoms: _700  and  _701
REMARK  276  A    between atoms: _706  and  _707
REMARK  277  A    between atoms: _709  and  _711
REMARK  278  A    between atoms: _711  and  _712
REMARK  279  A    between atoms: _711  and  _714
REMARK  280  A    between atoms: _714  and  _715
REMARK  281  A    between atoms: _715  and  _716
REMARK  282  A    between atoms: _716  and  _717
REMARK  283  A    between atoms: _717  and  _718
REMARK  284  A    between atoms: _722  and  _724
REMARK  285  A    between atoms: _724  and  _725
REMARK  286  A    between atoms: _724  and  _727
REMARK                            x       y       z     vdW  Elec       q    Type
REMARK                         _______ _______ _______ _____ _____    ______ ____
ROOT
ATOM      1  CA  GLY A   1      25.994  10.170  12.744  0.00  0.00    +0.156 C 
ENDROOT
BRANCH   1   2
ATOM      2  N   GLY A   1      27.028   9.133  12.741  0.00  0.00    -0.238 NA
ATOM      3  H   GLY A   1      27.707   9.101  13.528  0.00  0.00    +0.142 HD
ENDBRANCH   1   2
BRANCH   1   4
ATOM      4  C   GLY A   1      24.540   9.711  12.781  0.00  0.00    +0.226 C 
ATOM      5  O   GLY A   1      24.230   8.654  13.333  0.00  0.00    -0.287 OA
ENDBRANCH   1   4
TORSDOF 2
REMARK  Name = ../refined-set-2016/2euk/2euk_pocket.pdb
REMARK  286 active torsions:
REMARK  status: ('A' for Active; 'I' for Inactive)
REMARK    1  A    between atoms: _1  and  _5
REMARK    2  A    between atoms: _5  and  _6
REMARK    3  A    between atoms: _5  and  _8
REMARK    4  A    between atoms: _8  and  _9
REMARK    5  A    between atoms: _12  and  _14
REMARK    6  A    between atoms: _14  and  _15
REMARK    7  A    between atoms: _14  and  _17
REMARK    8  A    between atoms: _17  and  _18
REMARK    9  A    between atoms: _23  and  _25
REMARK   10  A    between atoms: _25  and  _26
REMARK   11  A    between atoms: _25  and  _28
REMARK   12  A    between atoms: _28  and  _29
REMARK   13  A    between atoms: _33  and  _34
REMARK   14  A    between atoms: _40  and  _41
REMARK   15  A    between atoms: _46  and  _48
REMARK   16  A    between atoms: _48  and  _49
REMARK   17  A    between atoms: _48  and  _51
REMARK   18  A    between atoms: _51  and  _52
REMARK   19  A    between atoms: _58  and  _60
REMARK   20  A    between atoms: _60  and  _61
REMARK   21  A    between atoms: _60  and  _63
REMARK   22  A    between atoms: _63  and  _64
REMARK   23  A    between atoms: _70  and  _72
REMARK   24  A    between atoms: _72  and  _73
REMARK   25  A    between atoms: _72  and  _75
REMARK   26  A    between atoms: _75  and  _76
REMARK   27  A    between atoms: _79  and  _81
REMARK   28  A    between atoms: _81  and  _82
REMARK   29  A    between atoms: _81  and  _84
REMARK   30  A    between atoms: _86  and  _88
REMARK   31  A    between atoms: _88  and  _89
REMARK   32  A    between atoms: _88  and  _91
REMARK   33  A    between atoms: _91  and  _92
REMARK   34  A    between atoms: _95  and  _97
REMARK   35  A    between atoms: _97  and  _98
REMARK   36  A    between atoms: _97  and  _100
REMARK   37  A    between atoms: _100  and  _101
REMARK   38  A    between atoms: _103  and  _105
REMARK   39  A    between atoms: _105  and  _106
REMARK   40  A    between atoms: _105  and  _108
REMARK   41  A    between atoms: _111  and  _113
REMARK   42  A    between atoms: _113  and  _114
REMARK   43  A    between atoms: _113  and  _116
REMARK   44  A    between atoms: _116  and  _117
REMARK   45  A    between atoms: _123  and  _125
REMARK   46  A    between atoms: _125  and  _126
REMARK   47  A    between atoms: _125  and  _128
REMARK   48  A    between atoms: _128  and  _129
REMARK   49  A    between atoms: _133  and  _134
REMARK   50  A    between atoms: _139  and  _141
REMARK   51  A    between atoms: _141  and  _142
REMARK   52  A    between atoms: _141  and  _144
REMARK   53  A    between atoms: _144  and  _145
REMARK   54  A    between atoms: _148  and  _150
REMARK   55  A    between atoms: _150  and  _151
REMARK   56  A    between atoms: _150  and  _153
REMARK   57  A    between atoms: _153  and  _154
REMARK   58  A    between atoms: _154  and  _155
REMARK   59  A    between atoms: _155  and  _156
REMARK   60  A    between atoms: _156  and  _157
REMARK   61  A    between atoms: _161  and  _163
REMARK   62  A    between atoms: _163  and  _164
REMARK   63  A    between atoms: _167  and  _169
REMARK   64  A    between atoms: _169  and  _170
REMARK   65  A    between atoms: _169  and  _172
REMARK   66  A    between atoms: _172  and  _173
REMARK   67  A    between atoms: _176  and  _178
REMARK   68  A    between atoms: _178  and  _179
REMARK   69  A    between atoms: _178  and  _181
REMARK   70  A    between atoms: _181  and  _182
REMARK   71  A    between atoms: _185  and  _187
REMARK   72  A    between atoms: _187  and  _188
REMARK   73  A    between atoms: _190  and  _192
REMARK   74  A    between atoms: _192  and  _193
REMARK   75  A    between atoms: _192  and  _195
REMARK   76  A    between atoms: _195  and  _196
REMARK   77  A    between atoms: _201  and  _203
REMARK   78  A    between atoms: _203  and  _204
REMARK   79  A    between atoms: _203  and  _206
REMARK   80  A    between atoms: _206  and  _207
REMARK   81  A    between atoms: _210  and  _212
REMARK   82  A    between atoms: _212  and  _213
REMARK   83  A    between atoms: _212  and  _215
REMARK   84  A    between atoms: _215  and  _216
REMARK   85  A    between atoms: _216  and  _217
REMARK   86  A    between atoms: _217  and  _218
REMARK   87  A    between atoms: _218  and  _219
REMARK   88  A    between atoms: _223  and  _225
REMARK   89  A    between atoms: _225  and  _226
REMARK   90  A    between atoms: _225  and  _228
REMARK   91  A    between atoms: _228  and  _229
REMARK   92  A    between atoms: _229  and  _230
REMARK   93  A    between atoms: _230  and  _231
REMARK   94  A    between atoms: _231  and  _232
REMARK   95  A    between atoms: _236  and  _238
REMARK   96  A    between atoms: _238  and  _239
REMARK   97  A    between atoms: _241  and  _243
REMARK   98  A    between atoms: _243  and  _244
REMARK   99  A    between atoms: _243  and  _246
REMARK  100  A    between atoms: _246  and  _247
REMARK  101  A    between atoms: _250  and  _252
REMARK  102  A    between atoms: _252  and  _253
REMARK  103  A    between atoms: _256  and  _258
REMARK  104  A    between atoms: _258  and  _259
REMARK  105  A    between atoms: _258  and  _261
REMARK  106  A    between atoms: _261  and  _262
REMARK  107  A    between atoms: _265  and  _267
REMARK  108  A    between atoms: _267  and  _268
REMARK  109  A    between atoms: _267  and  _270
REMARK  110  A    between atoms: _270  and  _271
REMARK  111  A    between atoms: _271  and  _272
REMARK  112  A    between atoms: _274  and  _276
REMARK  113  A    between atoms: _276  and  _277
REMARK  114  A    between atoms: _276  and  _279
REMARK  115  A    between atoms: _279  and  _280
REMARK  116  A    between atoms: _290  and  _292
REMARK  117  A    between atoms: _292  and  _293
REMARK  118  A    between atoms: _292  and  _295
REMARK  119  A    between atoms: _295  and  _296
REMARK  120  A    between atoms: _299  and  _301
REMARK  121  A    between atoms: _301  and  _302
REMARK  122  A    between atoms: _301  and  _304
REMARK  123  A    between atoms: _304  and  _305
REMARK  124  A    between atoms: _305  and  _306
REMARK  125  A    between atoms: _306  and  _307
REMARK  126  A    between atoms: _307  and  _308
REMARK  127  A    between atoms: _312  and  _314
REMARK  128  A    between atoms: _314  and  _315
REMARK  129  A    between atoms: _314  and  _317
REMARK  130  A    between atoms: _317  and  _318
REMARK  131  A    between atoms: _318  and  _319
REMARK  132  A    between atoms: _319  and  _320
REMARK  133  A    between atoms: _329  and  _331
REMARK  134  A    between atoms: _331  and  _332
REMARK  135  A    between atoms: _334  and  _336
REMARK  136  A    between atoms: _336  and  _337
REMARK  137  A    between atoms: _336  and  _339
REMARK  138  A    between atoms: _339  and  _340
REMARK  139  A    between atoms: _343  and  _345
REMARK  140  A    between atoms: _345  and  _346
REMARK  141  A    between atoms: _345  and  _348
REMARK  142  A    between atoms: _348  and  _349
REMARK  143  A    between atoms: _349  and  _350
REMARK  144  A    between atoms: _350  and  _351
REMARK  145  A    between atoms: _360  and  _362
REMARK  146  A    between atoms: _362  and  _363
REMARK  147  A    between atoms: _362  and  _365
REMARK  148  A    between atoms: _365  and  _366
REMARK  149  A    between atoms: _372  and  _374
REMARK  150  A    between atoms: _374  and  _375
REMARK  151  A    between atoms: _374  and  _377
REMARK  152  A    between atoms: _377  and  _378
REMARK  153  A    between atoms: _381  and  _383
REMARK  154  A    between atoms: _383  and  _384
REMARK  155  A    between atoms: _383  and  _386
REMARK  156  A    between atoms: _386  and  _387
REMARK  157  A    between atoms: _387  and  _388
REMARK  158  A    between atoms: _393  and  _395
REMARK  159  A    between atoms: _395  and  _396
REMARK  160  A    between atoms: _395  and  _398
REMARK  161  A    between atoms: _398  and  _399
REMARK  162  A    between atoms: _405  and  _407
REMARK  163  A    between atoms: _407  and  _408
REMARK  164  A    between atoms: _407  and  _410
REMARK  165  A    between atoms: _410  and  _411
REMARK  166  A    between atoms: _414  and  _416
REMARK  167  A    between atoms: _416  and  _417
REMARK  168  A    between atoms: _416  and  _419
REMARK  169  A    between atoms: _419  and  _420
REMARK  170  A    between atoms: _423  and  _425
REMARK  171  A    between atoms: _425  and  _426
REMARK  172  A    between atoms: _425  and  _428
REMARK  173  A    between atoms: _428  and  _429
REMARK  174  A    between atoms: _429  and  _430
REMARK  175  A    between atoms: _430  and  _431
REMARK  176  A    between atoms: _440  and  _442
REMARK  177  A    between atoms: _442  and  _443
REMARK  178  A    between atoms: _442  and  _445
REMARK  179  A    between atoms: _445  and  _446
REMARK  180  A    between atoms: _451  and  _453
REMARK  181  A    between atoms: _453  and  _454
REMARK  182  A    between atoms: _457  and  _459
REMARK  183  A    between atoms: _459  and  _460
REMARK  184  A    between atoms: _459  and  _462
REMARK  185  A    between atoms: _462  and  _463
REMARK  186  A    between atoms: _466  and  _468
REMARK  187  A    between atoms: _468  and  _469
REMARK  188  A    between atoms: _472  and  _474
REMARK  189  A    between atoms: _474  and  _475
REMARK  190  A    between atoms: _474  and  _477
REMARK  191  A    between atoms: _477  and  _478
REMARK  192  A    between atoms: _483  and  _484
REMARK  193  A    between atoms: _486  and  _488
REMARK  194  A    between atoms: _488  and  _489
REMARK  195  A    between atoms: _492  and  _494
REMARK  196  A    between atoms: _494  and  _495
REMARK  197  A    between atoms: _494  and  _497
REMARK  198  A    between atoms: _497  and  _498
REMARK  199  A    between atoms: _501  and  _503
REMARK  200  A    between atoms: _503  and  _504
REMARK  201  A    between atoms: _503  and  _506
REMARK  202  A    between atoms: _506  and  _507
REMARK  203  A    between atoms: _507  and  _508
REMARK  204  A    between atoms: _508  and  _509
REMARK  205  A    between atoms: _509  and  _510
REMARK  206  A    between atoms: _514  and  _516
REMARK  207  A    between atoms: _516  and  _517
REMARK  208  A    between atoms: _516  and  _519
REMARK  209  A    between atoms: _519  and  _520
REMARK  210  A    between atoms: _525  and  _526
REMARK  211  A    between atoms: _528  and  _530
REMARK  212  A    between atoms: _530  and  _531
REMARK  213  A    between atoms: _530  and  _533
REMARK  214  A    between atoms: _533  and  _534
REMARK  215  A    between atoms: _539  and  _541
REMARK  216  A    between atoms: _541  and  _542
REMARK  217  A    between atoms: _544  and  _546
REMARK  218  A    between atoms: _546  and  _547
REMARK  219  A    between atoms: _546  and  _549
REMARK  220  A    between atoms: _549  and  _550
REMARK  221  A    between atoms: _553  and  _555
REMARK  222  A    between atoms: _555  and  _556
REMARK  223  A    between atoms: _555  and  _558
REMARK  224  A    between atoms: _561  and  _563
REMARK  225  A    between atoms: _563  and  _564
REMARK  226  A    between atoms: _563  and  _566
REMARK  227  A    between atoms: _566  and  _567
REMARK  228  A    between atoms: _570  and  _572
REMARK  229  A    between atoms: _572  and  _573
REMARK  230  A    between atoms: _572  and  _575
REMARK  231  A    between atoms: _575  and  _576
REMARK  232  A    between atoms: _582  and  _584
REMARK  233  A    between atoms: _584  and  _585
REMARK  234  A    between atoms: _584  and  _587
REMARK  235  A    between atoms: _587  and  _588
REMARK  236  A    between atoms: _588  and  _589
REMARK  237  A    between atoms: _594  and  _596
REMARK  238  A    between atoms: _596  and  _597
REMARK  239  A    between atoms: _600  and  _602
REMARK  240  A    between atoms: _602  and  _603
REMARK  241  A    between atoms: _606  and  _608
REMARK  242  A    between atoms: _608  and  _609
REMARK  243  A    between atoms: _608  and  _611
REMARK  244  A    between atoms: _611  and  _612
REMARK  245  A    between atoms: _615  and  _617
REMARK  246  A    between atoms: _617  and  _618
REMARK  247  A    between atoms: _617  and  _620
REMARK  248  A    between atoms: _620  and  _621
REMARK  249  A    between atoms: _626  and  _627
REMARK  250  A    between atoms: _629  and  _631
REMARK  251  A    between atoms: _631  and  _632
REMARK  252  A    between atoms: _635  and  _637
REMARK  253  A    between atoms: _637  and  _638
REMARK  254  A    between atoms: _642  and  _643
REMARK  255  A    between atoms: _648  and  _650
REMARK  256  A    between atoms: _650  and  _651
REMARK  257  A    between atoms: _650  and  _653
REMARK  258  A    between atoms: _653  and  _654
REMARK  259  A    between atoms: _660  and  _662
REMARK  260  A    between atoms: _662  and  _663
REMARK  261  A    between atoms: _662  and  _665
REMARK  262  A    between atoms: _665  and  _666
REMARK  263  A    between atoms: _669  and  _671
REMARK  264  A    between atoms: _671  and  _672
REMARK  265  A    between atoms: _671  and  _674
REMARK  266  A    between atoms: _674  and  _675
REMARK  267  A    between atoms: _681  and  _683
REMARK  268  A    between atoms: _683  and  _684
REMARK  269  A    between atoms: _683  and  _686
REMARK  270  A    between atoms: _686  and  _687
REMARK  271  A    between atoms: _692  and  _693
REMARK  272  A    between atoms: _695  and  _697
REMARK  273  A    between atoms: _697  and  _698
REMARK  274  A    between atoms: _697  and  _700
REMARK  275  A    between atoms: _700  and  _701
REMARK  276  A    between atoms: _706  and  _707
REMARK  277  A    between atoms: _709  and  _711
REMARK  278  A    between atoms: _711  and  _712
REMARK  279  A    between atoms: _711  and  _714
REMARK  280  A    between atoms: _714  and  _715
REMARK  281  A    between atoms: _715  and  _716
REMARK  282  A    between atoms: _716  and  _717
REMARK  283  A    between atoms: _717  and  _718
REMARK  284  A    between atoms: _722  and  _724
REMARK  285  A    between atoms: _724  and  _725
REMARK  286  A    between atoms: _724  and  _727
REMARK                            x       y       z     vdW  Elec       q    Type
REMARK                         _______ _______ _______ _____ _____    ______ ____
ROOT
ATOM      1  CA  ARG A   8      15.248  -2.162  12.606  0.00  0.00    +0.149 C 
ENDROOT
BRANCH   1   2
ATOM      2  C   ARG A   8      14.362  -2.300  13.846  0.00  0.00    +0.241 C 
ATOM      3  N   GLY A   9      14.425  -1.350  14.786  0.00  0.00    -0.295 N 
ATOM      4  H   GLY A   9      15.158  -0.614  14.740  0.00  0.00    +0.150 HD
ATOM      5  O   ARG A   8      13.572  -3.240  13.929  0.00  0.00    -0.273 OA
BRANCH   3   6
ATOM      6  CA  GLY A   9      13.442  -1.357  15.890  0.00  0.00    +0.176 C 
BRANCH   6   7
ATOM      7  C   GLY A   9      12.001  -1.112  15.396  0.00  0.00    +0.243 C 
ATOM      8  O   GLY A   9      11.044  -1.770  15.838  0.00  0.00    -0.273 OA
ATOM      9  N   LEU A  10      11.843  -0.178  14.466  0.00  0.00    -0.297 N 
ATOM     10  H   LEU A  10      12.667   0.387  14.179  0.00  0.00    +0.150 HD
BRANCH   9  11
ATOM     11  CA  LEU A  10      10.543   0.087  13.826  0.00  0.00    +0.149 C 
BRANCH  11  12
ATOM     12  C   LEU A  10       9.988  -1.115  13.042  0.00  0.00    +0.241 C 
ATOM     13  O   LEU A  10       8.814  -1.468  13.197  0.00  0.00    -0.273 OA
ATOM     14  N   ARG A  11      10.853  -1.766  12.267  0.00  0.00    -0.297 N 
ATOM     15  H   ARG A  11      11.818  -1.391  12.171  0.00  0.00    +0.150 HD
BRANCH  14  16
ATOM     16  CA  ARG A  11      10.500  -2.987  11.546  0.00  0.00    +0.149 C 
BRANCH  16  17
ATOM     17  C   ARG A  11      10.106  -4.086  12.504  0.00  0.00    +0.241 C 
ATOM     18  N   PHE A  12      10.821  -4.225  13.621  0.00  0.00    -0.297 N 
ATOM     19  H   PHE A  12      11.689  -3.668  13.758  0.00  0.00    +0.150 HD
ATOM     20  O   ARG A  11       9.152  -4.818  12.260  0.00  0.00    -0.273 OA
BRANCH  18  21
ATOM     21  CA  PHE A  12      10.382  -5.160  14.648  0.00  0.00    +0.153 C 
BRANCH  21  22
ATOM     22  C   PHE A  12       8.935  -4.907  15.092  0.00  0.00    +0.241 C 
ATOM     23  N   ILE A  13       8.604  -3.666  15.445  0.00  0.00    -0.297 N 
ATOM     24  H   ILE A  13       9.324  -2.916  15.410  0.00  0.00    +0.150 HD
ATOM     25  O   PHE A  12       8.111  -5.852  15.131  0.00  0.00    -0.273 OA
BRANCH  23  26
ATOM     26  CA  ILE A  13       7.238  -3.337  15.883  0.00  0.00    +0.149 C 
BRANCH  26  27
ATOM     27  C   ILE A  13       6.221  -3.633  14.767  0.00  0.00    +0.241 C 
ATOM     28  O   ILE A  13       5.120  -4.178  15.003  0.00  0.00    -0.273 OA
ATOM     29  N   GLN A  14       6.608  -3.292  13.546  0.00  0.00    -0.298 N 
ATOM     30  H   GLN A  14       7.527  -2.827  13.406  0.00  0.00    +0.150 HD
BRANCH  29  31
ATOM     31  CA  GLN A  14       5.751  -3.566  12.397  0.00  0.00    +0.137 C 
BRANCH  31  32
ATOM     32  C   GLN A  14       5.380  -5.052  12.186  0.00  0.00    +0.227 C 
ATOM     33  O   GLN A  14       4.183  -5.385  12.041  0.00  0.00    -0.286 OA
ENDBRANCH  31  32
BRANCH  31  34
ATOM     34  CB  GLN A  14       6.407  -2.974  11.157  0.00  0.00    +0.037 C 
BRANCH  34  35
ATOM     35  CG  GLN A  14       5.665  -3.274   9.886  0.00  0.00    +0.087 C 
BRANCH  35  36
ATOM     36  CD  GLN A  14       6.659  -3.492   8.782  0.00  0.00    +0.219 C 
ATOM     37  OE1 GLN A  14       7.395  -2.574   8.443  0.00  0.00    -0.275 OA
ATOM     38  NE2 GLN A  14       6.730  -4.707   8.253  0.00  0.00    -0.329 N 
ATOM     39 HE21 GLN A  14       6.081  -5.453   8.576  0.00  0.00    +0.145 HD
ATOM     40 HE22 GLN A  14       7.434  -4.913   7.516  0.00  0.00    +0.145 HD
ENDBRANCH  35  36
ENDBRANCH  34  35
ENDBRANCH  31  34
ENDBRANCH  29  31
ENDBRANCH  26  27
BRANCH  26  41
ATOM     41  CB  ILE A  13       7.132  -1.866  16.373  0.00  0.00    +0.027 C 
ATOM     42  CG2 ILE A  13       5.677  -1.464  16.744  0.00  0.00    +0.002 C 
BRANCH  41  43
ATOM     43  CG1 ILE A  13       8.031  -1.688  17.604  0.00  0.00    +0.002 C 
ATOM     44  CD1 ILE A  13       8.404  -0.307  17.898  0.00  0.00    +0.000 C 
ENDBRANCH  41  43
ENDBRANCH  26  41
ENDBRANCH  23  26
ENDBRANCH  21  22
BRANCH  21  45
ATOM     45  CB  PHE A  12      11.315  -5.224  15.885  0.00  0.00    +0.055 C 
BRANCH  45  46
ATOM     46  CG  PHE A  12      10.767  -6.114  16.970  0.00  0.00    -0.020 A 
ATOM     47  CD2 PHE A  12       9.736  -5.674  17.815  0.00  0.00    -0.004 A 
ATOM     48  CE2 PHE A  12       9.197  -6.501  18.816  0.00  0.00    -0.000 A 
ATOM     49  CZ  PHE A  12       9.695  -7.780  18.984  0.00  0.00    -0.000 A 
ATOM     50  CE1 PHE A  12      10.735  -8.241  18.148  0.00  0.00    -0.000 A 
ATOM     51  CD1 PHE A  12      11.266  -7.399  17.135  0.00  0.00    -0.004 A 
ENDBRANCH  45  46
ENDBRANCH  21  45
ENDBRANCH  18  21
ENDBRANCH  16  17
BRANCH  16  52
ATOM     52  CB  ARG A  11      11.669  -3.471  10.693  0.00  0.00    +0.033 C 
BRANCH  52  53
ATOM     53  CG  ARG A  11      11.317  -4.721   9.916  0.00  0.00    +0.045 C 
BRANCH  53  54
ATOM     54  CD  ARG A  11      10.332  -4.397   8.794  0.00  0.00    +0.174 C 
BRANCH  54  55
ATOM     55  NE  ARG A  11      10.886  -3.930   7.510  0.00  0.00    -0.265 N 
ATOM     56  HE  ARG A  11      10.601  -2.971   7.226  0.00  0.00    +0.259 HD
ATOM     57  CZ  ARG A  11      11.698  -4.557   6.660  0.00  0.00    +0.342 C 
ATOM     58  NH2 ARG A  11      12.235  -5.752   6.893  0.00  0.00    -0.292 N 
ATOM     59 HH21 ARG A  11      12.028  -6.251   7.782  0.00  0.00    +0.255 HD
ATOM     60 HH22 ARG A  11      12.862  -6.187   6.186  0.00  0.00    +0.255 HD
ATOM     61  NH1 ARG A  11      11.994  -3.935   5.524  0.00  0.00    -0.292 N 
ATOM     62 HH11 ARG A  11      11.596  -2.995   5.327  0.00  0.00    +0.255 HD
ATOM     63 HH12 ARG A  11      12.624  -4.388   4.832  0.00  0.00    +0.255 HD
ENDBRANCH  54  55
ENDBRANCH  53  54
ENDBRANCH  52  53
ENDBRANCH  16  52
ENDBRANCH  14  16
ENDBRANCH  11  12
BRANCH  11  64
ATOM     64  CB  LEU A  10      10.566   1.358  12.971  0.00  0.00    +0.029 C 
BRANCH  64  65
ATOM     65  CG  LEU A  10      10.887   2.688  13.690  0.00  0.00    +0.002 C 
ATOM     66  CD2 LEU A  10       9.981   2.971  14.890  0.00  0.00    +0.000 C 
ATOM     67  CD1 LEU A  10      10.890   3.837  12.717  0.00  0.00    +0.000 C 
ENDBRANCH  64  65
ENDBRANCH  11  64
ENDBRANCH   9  11
ENDBRANCH   6   7
ENDBRANCH   3   6
ENDBRANCH   1   2
BRANCH   1  69
ATOM     68  C   LYS A   7      14.272  -0.129  11.664  0.00  0.00    +0.241 C 
ATOM     69  N   ARG A   8      15.292  -0.777  12.215  0.00  0.00    -0.297 N 
ATOM     70  H   ARG A   8      16.176  -0.252  12.374  0.00  0.00    +0.150 HD
ATOM     71  O   LYS A   7      13.175  -0.653  11.486  0.00  0.00    -0.273 OA
BRANCH  68  72
ATOM     72  CA  LYS A   7      14.529   1.333  11.252  0.00  0.00    +0.149 C 
BRANCH  72  75
ATOM     73  C   LEU A   6      15.057   2.071  13.493  0.00  0.00    +0.241 C 
ATOM     74  O   LEU A   6      14.041   1.516  13.939  0.00  0.00    -0.273 OA
ATOM     75  N   LYS A   7      15.420   1.986  12.215  0.00  0.00    -0.297 N 
ATOM     76  H   LYS A   7      16.330   2.380  11.902  0.00  0.00    +0.150 HD
BRANCH  73  77
ATOM     77  CA  LEU A   6      15.995   2.837  14.434  0.00  0.00    +0.149 C 
BRANCH  77  80
ATOM     78  C   TRP A   5      17.796   1.242  14.322  0.00  0.00    +0.241 C 
ATOM     79  O   TRP A   5      17.010   0.356  14.721  0.00  0.00    -0.273 OA
ATOM     80  N   LEU A   6      17.403   2.497  14.186  0.00  0.00    -0.297 N 
ATOM     81  H   LEU A   6      18.082   3.234  13.907  0.00  0.00    +0.150 HD
BRANCH  78  82
ATOM     82  CA  TRP A   5      19.234   0.903  13.940  0.00  0.00    +0.153 C 
BRANCH  82  84
ATOM     83  C   MET A   4      19.453   1.359  11.557  0.00  0.00    +0.241 C 
ATOM     84  N   TRP A   5      19.741   1.698  12.820  0.00  0.00    -0.297 N 
ATOM     85  H   TRP A   5      20.331   2.534  13.007  0.00  0.00    +0.150 HD
ATOM     86  O   MET A   4      18.865   0.305  11.269  0.00  0.00    -0.273 OA
BRANCH  83  87
ATOM     87  CA  MET A   4      19.963   2.289  10.454  0.00  0.00    +0.149 C 
BRANCH  87  90
ATOM     88  C   LEU A   3      18.570   4.158  11.123  0.00  0.00    +0.241 C 
ATOM     89  O   LEU A   3      17.547   3.482  10.953  0.00  0.00    -0.273 OA
ATOM     90  N   MET A   4      19.783   3.651  10.908  0.00  0.00    -0.297 N 
ATOM     91  H   MET A   4      20.619   4.248  11.070  0.00  0.00    +0.150 HD
BRANCH  88  92
ATOM     92  CA  LEU A   3      18.466   5.597  11.612  0.00  0.00    +0.149 C 
BRANCH  92  95
ATOM     93  C   ALA A   2      19.897   5.426  13.618  0.00  0.00    +0.241 C 
ATOM     94  O   ALA A   2      19.174   4.598  14.140  0.00  0.00    -0.273 OA
ATOM     95  N   LEU A   3      19.600   6.020  12.465  0.00  0.00    -0.297 N 
ATOM     96  H   LEU A   3      20.190   6.816  12.149  0.00  0.00    +0.150 HD
BRANCH  93  97
ATOM     97  CA  ALA A   2      21.169   5.896  14.339  0.00  0.00    +0.149 C 
ATOM     98  CB  ALA A   2      20.933   7.237  15.023  0.00  0.00    +0.031 C 
BRANCH  97 100
ATOM     99  C   LEU A   1      22.737   4.884  12.812  0.00  0.00    +0.238 C 
ATOM    100  N   ALA A   2      22.282   5.986  13.403  0.00  0.00    -0.297 N 
ATOM    101  H   ALA A   2      22.719   6.907  13.198  0.00  0.00    +0.150 HD
ATOM    102  O   LEU A   1      22.228   3.756  12.948  0.00  0.00    -0.274 OA
BRANCH  99 103
ATOM    103  CA  LEU A   1      23.915   5.055  11.879  0.00  0.00    +0.145 C 
BRANCH 103 104
ATOM    104  N   LEU A   1      23.794   6.211  11.031  0.00  0.00    -0.238 NA
ATOM    105  H   LEU A   1      24.464   6.999  11.143  0.00  0.00    +0.142 HD
ENDBRANCH 103 104
BRANCH 103 106
ATOM    106  CB  LEU A   1      25.218   5.042  12.694  0.00  0.00    +0.026 C 
BRANCH 106 107
ATOM    107  CG  LEU A   1      25.447   3.724  13.449  0.00  0.00    +0.002 C 
ATOM    108  CD2 LEU A   1      26.763   4.003  14.163  0.00  0.00    +0.000 C 
ATOM    109  CD1 LEU A   1      25.471   2.433  12.571  0.00  0.00    +0.000 C 
ENDBRANCH 106 107
ENDBRANCH 103 106
ENDBRANCH  99 103
ENDBRANCH  97 100
ENDBRANCH  93  97
ENDBRANCH  92  95
BRANCH  92 110
ATOM    110  CB  LEU A   3      18.209   6.634  10.496  0.00  0.00    +0.029 C 
BRANCH 110 111
ATOM    111  CG  LEU A   3      16.998   6.386   9.563  0.00  0.00    +0.002 C 
ATOM    112  CD2 LEU A   3      15.724   6.437  10.419  0.00  0.00    +0.000 C 
ATOM    113  CD1 LEU A   3      17.054   7.436   8.479  0.00  0.00    +0.000 C 
ENDBRANCH 110 111
ENDBRANCH  92 110
ENDBRANCH  88  92
ENDBRANCH  87  90
BRANCH  87 114
ATOM    114  CB  MET A   4      21.432   1.997  10.165  0.00  0.00    +0.041 C 
BRANCH 114 115
ATOM    115  CG  MET A   4      21.698   0.654   9.447  0.00  0.00    +0.060 C 
BRANCH 115 116
ATOM    116  SD  MET A   4      23.464   0.262   9.470  0.00  0.00    -0.139 S 
ATOM    117  CE  MET A   4      24.194   1.841   8.959  0.00  0.00    +0.069 C 
ENDBRANCH 115 116
ENDBRANCH 114 115
ENDBRANCH  87 114
ENDBRANCH  83  87
ENDBRANCH  82  84
BRANCH  82 118
ATOM    118  CB  TRP A   5      20.177   1.057  15.145  0.00  0.00    +0.057 C 
BRANCH 118 119
ATOM    119  CG  TRP A   5      21.480   0.290  14.960  0.00  0.00    -0.002 A 
ATOM    120  CD2 TRP A   5      21.633  -1.123  15.125  0.00  0.00    +0.013 A 
ATOM    121  CE3 TRP A   5      20.763  -2.141  15.557  0.00  0.00    +0.001 A 
ATOM    122  CZ3 TRP A   5      21.240  -3.402  15.702  0.00  0.00    +0.000 A 
ATOM    123  CH2 TRP A   5      22.599  -3.719  15.383  0.00  0.00    +0.001 A 
ATOM    124  CZ2 TRP A   5      23.468  -2.760  14.934  0.00  0.00    +0.017 A 
ATOM    125  CE2 TRP A   5      22.971  -1.446  14.826  0.00  0.00    +0.056 A 
ATOM    126  NE1 TRP A   5      23.582  -0.300  14.399  0.00  0.00    -0.352 N 
ATOM    127  HE1 TRP A   5      24.568  -0.225  14.077  0.00  0.00    +0.166 HD
ATOM    128  CD1 TRP A   5      22.672   0.749  14.465  0.00  0.00    +0.068 A 
ENDBRANCH 118 119
ENDBRANCH  82 118
ENDBRANCH  78  82
ENDBRANCH  77  80
BRANCH  77 129
ATOM    129  CB  LEU A   6      15.706   4.317  14.314  0.00  0.00    +0.029 C 
BRANCH 129 130
ATOM    130  CG  LEU A   6      14.260   4.803  14.503  0.00  0.00    +0.002 C 
ATOM    131  CD2 LEU A   6      13.711   4.484  15.914  0.00  0.00    +0.000 C 
ATOM    132  CD1 LEU A   6      14.192   6.276  14.209  0.00  0.00    +0.000 C 
ENDBRANCH 129 130
ENDBRANCH  77 129
ENDBRANCH  73  77
ENDBRANCH  72  75
BRANCH  72 133
ATOM    133  CB  LYS A   7      15.049   1.496   9.810  0.00  0.00    +0.029 C 
BRANCH 133 134
ATOM    134  CG  LYS A   7      16.206   0.561   9.436  0.00  0.00    +0.000 C 
BRANCH 134 135
ATOM    135  CD  LYS A   7      16.728   0.971   8.047  0.00  0.00    -0.024 C 
BRANCH 135 136
ATOM    136  CE  LYS A   7      17.746   0.066   7.356  0.00  0.00    -0.086 C 
BRANCH 136 137
ATOM    137  NZ  LYS A   7      18.451  -0.934   8.170  0.00  0.00    +0.380 N 
ATOM    138  HZ1 LYS A   7      18.985  -0.453   8.922  0.00  0.00    -0.089 HD
ATOM    139  HZ2 LYS A   7      17.759  -1.583   8.596  0.00  0.00    -0.089 HD
ATOM    140  HZ3 LYS A   7      19.106  -1.471   7.567  0.00  0.00    -0.089 HD
ENDBRANCH 136 137
ENDBRANCH 135 136
ENDBRANCH 134 135
ENDBRANCH 133 134
ENDBRANCH  72 133
ENDBRANCH  68  72
ENDBRANCH   1  69
BRANCH   1 141
ATOM    141  CB  ARG A   8      16.666  -2.696  12.878  0.00  0.00    +0.033 C 
BRANCH 141 142
ATOM    142  CG  ARG A   8      17.569  -2.801  11.643  0.00  0.00    +0.045 C 
BRANCH 142 143
ATOM    143  CD  ARG A   8      19.032  -3.019  12.028  0.00  0.00    +0.174 C 
BRANCH 143 144
ATOM    144  NE  ARG A   8      19.914  -3.001  10.862  0.00  0.00    -0.265 N 
ATOM    145  CZ  ARG A   8      21.240  -3.091  10.910  0.00  0.00    +0.342 C 
ATOM    146  NH2 ARG A   8      21.843  -3.199  12.086  0.00  0.00    -0.292 N 
ATOM    147 HH21 ARG A   8      21.280  -3.213  12.960  0.00  0.00    +0.255 HD
ATOM    148 HH22 ARG A   8      22.879  -3.270  12.134  0.00  0.00    +0.255 HD
ATOM    149  NH1 ARG A   8      21.955  -3.137   9.779  0.00  0.00    -0.292 N 
ATOM    150 HH11 ARG A   8      22.992  -3.207   9.822  0.00  0.00    +0.255 HD
ATOM    151 HH12 ARG A   8      21.474  -3.102   8.858  0.00  0.00    +0.255 HD
ATOM    152  HE  ARG A   8      19.471  -2.911   9.925  0.00  0.00    +0.259 HD
ENDBRANCH 143 144
ENDBRANCH 142 143
ENDBRANCH 141 142
ENDBRANCH   1 141
TORSDOF 61
REMARK  Name = ../refined-set-2016/2euk/2euk_pocket.pdb
REMARK  286 active torsions:
REMARK  status: ('A' for Active; 'I' for Inactive)
REMARK    1  A    between atoms: _1  and  _5
REMARK    2  A    between atoms: _5  and  _6
REMARK    3  A    between atoms: _5  and  _8
REMARK    4  A    between atoms: _8  and  _9
REMARK    5  A    between atoms: _12  and  _14
REMARK    6  A    between atoms: _14  and  _15
REMARK    7  A    between atoms: _14  and  _17
REMARK    8  A    between atoms: _17  and  _18
REMARK    9  A    between atoms: _23  and  _25
REMARK   10  A    between atoms: _25  and  _26
REMARK   11  A    between atoms: _25  and  _28
REMARK   12  A    between atoms: _28  and  _29
REMARK   13  A    between atoms: _33  and  _34
REMARK   14  A    between atoms: _40  and  _41
REMARK   15  A    between atoms: _46  and  _48
REMARK   16  A    between atoms: _48  and  _49
REMARK   17  A    between atoms: _48  and  _51
REMARK   18  A    between atoms: _51  and  _52
REMARK   19  A    between atoms: _58  and  _60
REMARK   20  A    between atoms: _60  and  _61
REMARK   21  A    between atoms: _60  and  _63
REMARK   22  A    between atoms: _63  and  _64
REMARK   23  A    between atoms: _70  and  _72
REMARK   24  A    between atoms: _72  and  _73
REMARK   25  A    between atoms: _72  and  _75
REMARK   26  A    between atoms: _75  and  _76
REMARK   27  A    between atoms: _79  and  _81
REMARK   28  A    between atoms: _81  and  _82
REMARK   29  A    between atoms: _81  and  _84
REMARK   30  A    between atoms: _86  and  _88
REMARK   31  A    between atoms: _88  and  _89
REMARK   32  A    between atoms: _88  and  _91
REMARK   33  A    between atoms: _91  and  _92
REMARK   34  A    between atoms: _95  and  _97
REMARK   35  A    between atoms: _97  and  _98
REMARK   36  A    between atoms: _97  and  _100
REMARK   37  A    between atoms: _100  and  _101
REMARK   38  A    between atoms: _103  and  _105
REMARK   39  A    between atoms: _105  and  _106
REMARK   40  A    between atoms: _105  and  _108
REMARK   41  A    between atoms: _111  and  _113
REMARK   42  A    between atoms: _113  and  _114
REMARK   43  A    between atoms: _113  and  _116
REMARK   44  A    between atoms: _116  and  _117
REMARK   45  A    between atoms: _123  and  _125
REMARK   46  A    between atoms: _125  and  _126
REMARK   47  A    between atoms: _125  and  _128
REMARK   48  A    between atoms: _128  and  _129
REMARK   49  A    between atoms: _133  and  _134
REMARK   50  A    between atoms: _139  and  _141
REMARK   51  A    between atoms: _141  and  _142
REMARK   52  A    between atoms: _141  and  _144
REMARK   53  A    between atoms: _144  and  _145
REMARK   54  A    between atoms: _148  and  _150
REMARK   55  A    between atoms: _150  and  _151
REMARK   56  A    between atoms: _150  and  _153
REMARK   57  A    between atoms: _153  and  _154
REMARK   58  A    between atoms: _154  and  _155
REMARK   59  A    between atoms: _155  and  _156
REMARK   60  A    between atoms: _156  and  _157
REMARK   61  A    between atoms: _161  and  _163
REMARK   62  A    between atoms: _163  and  _164
REMARK   63  A    between atoms: _167  and  _169
REMARK   64  A    between atoms: _169  and  _170
REMARK   65  A    between atoms: _169  and  _172
REMARK   66  A    between atoms: _172  and  _173
REMARK   67  A    between atoms: _176  and  _178
REMARK   68  A    between atoms: _178  and  _179
REMARK   69  A    between atoms: _178  and  _181
REMARK   70  A    between atoms: _181  and  _182
REMARK   71  A    between atoms: _185  and  _187
REMARK   72  A    between atoms: _187  and  _188
REMARK   73  A    between atoms: _190  and  _192
REMARK   74  A    between atoms: _192  and  _193
REMARK   75  A    between atoms: _192  and  _195
REMARK   76  A    between atoms: _195  and  _196
REMARK   77  A    between atoms: _201  and  _203
REMARK   78  A    between atoms: _203  and  _204
REMARK   79  A    between atoms: _203  and  _206
REMARK   80  A    between atoms: _206  and  _207
REMARK   81  A    between atoms: _210  and  _212
REMARK   82  A    between atoms: _212  and  _213
REMARK   83  A    between atoms: _212  and  _215
REMARK   84  A    between atoms: _215  and  _216
REMARK   85  A    between atoms: _216  and  _217
REMARK   86  A    between atoms: _217  and  _218
REMARK   87  A    between atoms: _218  and  _219
REMARK   88  A    between atoms: _223  and  _225
REMARK   89  A    between atoms: _225  and  _226
REMARK   90  A    between atoms: _225  and  _228
REMARK   91  A    between atoms: _228  and  _229
REMARK   92  A    between atoms: _229  and  _230
REMARK   93  A    between atoms: _230  and  _231
REMARK   94  A    between atoms: _231  and  _232
REMARK   95  A    between atoms: _236  and  _238
REMARK   96  A    between atoms: _238  and  _239
REMARK   97  A    between atoms: _241  and  _243
REMARK   98  A    between atoms: _243  and  _244
REMARK   99  A    between atoms: _243  and  _246
REMARK  100  A    between atoms: _246  and  _247
REMARK  101  A    between atoms: _250  and  _252
REMARK  102  A    between atoms: _252  and  _253
REMARK  103  A    between atoms: _256  and  _258
REMARK  104  A    between atoms: _258  and  _259
REMARK  105  A    between atoms: _258  and  _261
REMARK  106  A    between atoms: _261  and  _262
REMARK  107  A    between atoms: _265  and  _267
REMARK  108  A    between atoms: _267  and  _268
REMARK  109  A    between atoms: _267  and  _270
REMARK  110  A    between atoms: _270  and  _271
REMARK  111  A    between atoms: _271  and  _272
REMARK  112  A    between atoms: _274  and  _276
REMARK  113  A    between atoms: _276  and  _277
REMARK  114  A    between atoms: _276  and  _279
REMARK  115  A    between atoms: _279  and  _280
REMARK  116  A    between atoms: _290  and  _292
REMARK  117  A    between atoms: _292  and  _293
REMARK  118  A    between atoms: _292  and  _295
REMARK  119  A    between atoms: _295  and  _296
REMARK  120  A    between atoms: _299  and  _301
REMARK  121  A    between atoms: _301  and  _302
REMARK  122  A    between atoms: _301  and  _304
REMARK  123  A    between atoms: _304  and  _305
REMARK  124  A    between atoms: _305  and  _306
REMARK  125  A    between atoms: _306  and  _307
REMARK  126  A    between atoms: _307  and  _308
REMARK  127  A    between atoms: _312  and  _314
REMARK  128  A    between atoms: _314  and  _315
REMARK  129  A    between atoms: _314  and  _317
REMARK  130  A    between atoms: _317  and  _318
REMARK  131  A    between atoms: _318  and  _319
REMARK  132  A    between atoms: _319  and  _320
REMARK  133  A    between atoms: _329  and  _331
REMARK  134  A    between atoms: _331  and  _332
REMARK  135  A    between atoms: _334  and  _336
REMARK  136  A    between atoms: _336  and  _337
REMARK  137  A    between atoms: _336  and  _339
REMARK  138  A    between atoms: _339  and  _340
REMARK  139  A    between atoms: _343  and  _345
REMARK  140  A    between atoms: _345  and  _346
REMARK  141  A    between atoms: _345  and  _348
REMARK  142  A    between atoms: _348  and  _349
REMARK  143  A    between atoms: _349  and  _350
REMARK  144  A    between atoms: _350  and  _351
REMARK  145  A    between atoms: _360  and  _362
REMARK  146  A    between atoms: _362  and  _363
REMARK  147  A    between atoms: _362  and  _365
REMARK  148  A    between atoms: _365  and  _366
REMARK  149  A    between atoms: _372  and  _374
REMARK  150  A    between atoms: _374  and  _375
REMARK  151  A    between atoms: _374  and  _377
REMARK  152  A    between atoms: _377  and  _378
REMARK  153  A    between atoms: _381  and  _383
REMARK  154  A    between atoms: _383  and  _384
REMARK  155  A    between atoms: _383  and  _386
REMARK  156  A    between atoms: _386  and  _387
REMARK  157  A    between atoms: _387  and  _388
REMARK  158  A    between atoms: _393  and  _395
REMARK  159  A    between atoms: _395  and  _396
REMARK  160  A    between atoms: _395  and  _398
REMARK  161  A    between atoms: _398  and  _399
REMARK  162  A    between atoms: _405  and  _407
REMARK  163  A    between atoms: _407  and  _408
REMARK  164  A    between atoms: _407  and  _410
REMARK  165  A    between atoms: _410  and  _411
REMARK  166  A    between atoms: _414  and  _416
REMARK  167  A    between atoms: _416  and  _417
REMARK  168  A    between atoms: _416  and  _419
REMARK  169  A    between atoms: _419  and  _420
REMARK  170  A    between atoms: _423  and  _425
REMARK  171  A    between atoms: _425  and  _426
REMARK  172  A    between atoms: _425  and  _428
REMARK  173  A    between atoms: _428  and  _429
REMARK  174  A    between atoms: _429  and  _430
REMARK  175  A    between atoms: _430  and  _431
REMARK  176  A    between atoms: _440  and  _442
REMARK  177  A    between atoms: _442  and  _443
REMARK  178  A    between atoms: _442  and  _445
REMARK  179  A    between atoms: _445  and  _446
REMARK  180  A    between atoms: _451  and  _453
REMARK  181  A    between atoms: _453  and  _454
REMARK  182  A    between atoms: _457  and  _459
REMARK  183  A    between atoms: _459  and  _460
REMARK  184  A    between atoms: _459  and  _462
REMARK  185  A    between atoms: _462  and  _463
REMARK  186  A    between atoms: _466  and  _468
REMARK  187  A    between atoms: _468  and  _469
REMARK  188  A    between atoms: _472  and  _474
REMARK  189  A    between atoms: _474  and  _475
REMARK  190  A    between atoms: _474  and  _477
REMARK  191  A    between atoms: _477  and  _478
REMARK  192  A    between atoms: _483  and  _484
REMARK  193  A    between atoms: _486  and  _488
REMARK  194  A    between atoms: _488  and  _489
REMARK  195  A    between atoms: _492  and  _494
REMARK  196  A    between atoms: _494  and  _495
REMARK  197  A    between atoms: _494  and  _497
REMARK  198  A    between atoms: _497  and  _498
REMARK  199  A    between atoms: _501  and  _503
REMARK  200  A    between atoms: _503  and  _504
REMARK  201  A    between atoms: _503  and  _506
REMARK  202  A    between atoms: _506  and  _507
REMARK  203  A    between atoms: _507  and  _508
REMARK  204  A    between atoms: _508  and  _509
REMARK  205  A    between atoms: _509  and  _510
REMARK  206  A    between atoms: _514  and  _516
REMARK  207  A    between atoms: _516  and  _517
REMARK  208  A    between atoms: _516  and  _519
REMARK  209  A    between atoms: _519  and  _520
REMARK  210  A    between atoms: _525  and  _526
REMARK  211  A    between atoms: _528  and  _530
REMARK  212  A    between atoms: _530  and  _531
REMARK  213  A    between atoms: _530  and  _533
REMARK  214  A    between atoms: _533  and  _534
REMARK  215  A    between atoms: _539  and  _541
REMARK  216  A    between atoms: _541  and  _542
REMARK  217  A    between atoms: _544  and  _546
REMARK  218  A    between atoms: _546  and  _547
REMARK  219  A    between atoms: _546  and  _549
REMARK  220  A    between atoms: _549  and  _550
REMARK  221  A    between atoms: _553  and  _555
REMARK  222  A    between atoms: _555  and  _556
REMARK  223  A    between atoms: _555  and  _558
REMARK  224  A    between atoms: _561  and  _563
REMARK  225  A    between atoms: _563  and  _564
REMARK  226  A    between atoms: _563  and  _566
REMARK  227  A    between atoms: _566  and  _567
REMARK  228  A    between atoms: _570  and  _572
REMARK  229  A    between atoms: _572  and  _573
REMARK  230  A    between atoms: _572  and  _575
REMARK  231  A    between atoms: _575  and  _576
REMARK  232  A    between atoms: _582  and  _584
REMARK  233  A    between atoms: _584  and  _585
REMARK  234  A    between atoms: _584  and  _587
REMARK  235  A    between atoms: _587  and  _588
REMARK  236  A    between atoms: _588  and  _589
REMARK  237  A    between atoms: _594  and  _596
REMARK  238  A    between atoms: _596  and  _597
REMARK  239  A    between atoms: _600  and  _602
REMARK  240  A    between atoms: _602  and  _603
REMARK  241  A    between atoms: _606  and  _608
REMARK  242  A    between atoms: _608  and  _609
REMARK  243  A    between atoms: _608  and  _611
REMARK  244  A    between atoms: _611  and  _612
REMARK  245  A    between atoms: _615  and  _617
REMARK  246  A    between atoms: _617  and  _618
REMARK  247  A    between atoms: _617  and  _620
REMARK  248  A    between atoms: _620  and  _621
REMARK  249  A    between atoms: _626  and  _627
REMARK  250  A    between atoms: _629  and  _631
REMARK  251  A    between atoms: _631  and  _632
REMARK  252  A    between atoms: _635  and  _637
REMARK  253  A    between atoms: _637  and  _638
REMARK  254  A    between atoms: _642  and  _643
REMARK  255  A    between atoms: _648  and  _650
REMARK  256  A    between atoms: _650  and  _651
REMARK  257  A    between atoms: _650  and  _653
REMARK  258  A    between atoms: _653  and  _654
REMARK  259  A    between atoms: _660  and  _662
REMARK  260  A    between atoms: _662  and  _663
REMARK  261  A    between atoms: _662  and  _665
REMARK  262  A    between atoms: _665  and  _666
REMARK  263  A    between atoms: _669  and  _671
REMARK  264  A    between atoms: _671  and  _672
REMARK  265  A    between atoms: _671  and  _674
REMARK  266  A    between atoms: _674  and  _675
REMARK  267  A    between atoms: _681  and  _683
REMARK  268  A    between atoms: _683  and  _684
REMARK  269  A    between atoms: _683  and  _686
REMARK  270  A    between atoms: _686  and  _687
REMARK  271  A    between atoms: _692  and  _693
REMARK  272  A    between atoms: _695  and  _697
REMARK  273  A    between atoms: _697  and  _698
REMARK  274  A    between atoms: _697  and  _700
REMARK  275  A    between atoms: _700  and  _701
REMARK  276  A    between atoms: _706  and  _707
REMARK  277  A    between atoms: _709  and  _711
REMARK  278  A    between atoms: _711  and  _712
REMARK  279  A    between atoms: _711  and  _714
REMARK  280  A    between atoms: _714  and  _715
REMARK  281  A    between atoms: _715  and  _716
REMARK  282  A    between atoms: _716  and  _717
REMARK  283  A    between atoms: _717  and  _718
REMARK  284  A    between atoms: _722  and  _724
REMARK  285  A    between atoms: _724  and  _725
REMARK  286  A    between atoms: _724  and  _727
REMARK                            x       y       z     vdW  Elec       q    Type
REMARK                         _______ _______ _______ _____ _____    ______ ____
ROOT
ATOM      1  C   PHE A   1       3.544  -7.644  15.358  0.00  0.00    +0.239 C 
ATOM      2  O   PHE A   1       2.657  -8.510  15.470  0.00  0.00    -0.274 OA
ATOM      3  N   LEU A   2       3.257  -6.355  15.164  0.00  0.00    -0.298 N 
ATOM      4  H   LEU A   2       4.014  -5.648  15.067  0.00  0.00    +0.150 HD
ENDROOT
BRANCH   1   5
ATOM      5  CA  PHE A   1       5.025  -8.028  15.425  0.00  0.00    +0.149 C 
BRANCH   5   6
ATOM      6  N   PHE A   1       5.746  -7.550  14.244  0.00  0.00    -0.238 NA
ATOM      7  H   PHE A   1       6.533  -6.881  14.364  0.00  0.00    +0.142 HD
ENDBRANCH   5   6
BRANCH   5   8
ATOM      8  CB  PHE A   1       5.644  -7.377  16.656  0.00  0.00    +0.053 C 
BRANCH   8   9
ATOM      9  CG  PHE A   1       4.948  -7.698  17.953  0.00  0.00    -0.020 A 
ATOM     10  CD2 PHE A   1       4.229  -6.713  18.626  0.00  0.00    -0.004 A 
ATOM     11  CE2 PHE A   1       3.641  -6.988  19.875  0.00  0.00    -0.000 A 
ATOM     12  CZ  PHE A   1       3.761  -8.265  20.429  0.00  0.00    -0.000 A 
ATOM     13  CE1 PHE A   1       4.502  -9.246  19.775  0.00  0.00    -0.000 A 
ATOM     14  CD1 PHE A   1       5.089  -8.938  18.532  0.00  0.00    -0.004 A 
ENDBRANCH   8   9
ENDBRANCH   5   8
ENDBRANCH   1   5
BRANCH   3  15
ATOM     15  CA  LEU A   2       1.852  -5.964  15.092  0.00  0.00    +0.137 C 
BRANCH  15  16
ATOM     16  C   LEU A   2       1.103  -6.667  13.964  0.00  0.00    +0.227 C 
ATOM     17  O   LEU A   2      -0.031  -7.121  14.192  0.00  0.00    -0.286 OA
ENDBRANCH  15  16
BRANCH  15  18
ATOM     18  CB  LEU A   2       1.629  -4.458  14.990  0.00  0.00    +0.028 C 
BRANCH  18  19
ATOM     19  CG  LEU A   2       2.145  -3.761  16.263  0.00  0.00    +0.002 C 
ATOM     20  CD2 LEU A   2       1.404  -4.111  17.533  0.00  0.00    +0.000 C 
ATOM     21  CD1 LEU A   2       2.126  -2.259  16.017  0.00  0.00    +0.000 C 
ENDBRANCH  18  19
ENDBRANCH  15  18
ENDBRANCH   3  15
TORSDOF 8
REMARK  Name = ../refined-set-2016/2euk/2euk_pocket.pdb
REMARK  286 active torsions:
REMARK  status: ('A' for Active; 'I' for Inactive)
REMARK    1  A    between atoms: _1  and  _5
REMARK    2  A    between atoms: _5  and  _6
REMARK    3  A    between atoms: _5  and  _8
REMARK    4  A    between atoms: _8  and  _9
REMARK    5  A    between atoms: _12  and  _14
REMARK    6  A    between atoms: _14  and  _15
REMARK    7  A    between atoms: _14  and  _17
REMARK    8  A    between atoms: _17  and  _18
REMARK    9  A    between atoms: _23  and  _25
REMARK   10  A    between atoms: _25  and  _26
REMARK   11  A    between atoms: _25  and  _28
REMARK   12  A    between atoms: _28  and  _29
REMARK   13  A    between atoms: _33  and  _34
REMARK   14  A    between atoms: _40  and  _41
REMARK   15  A    between atoms: _46  and  _48
REMARK   16  A    between atoms: _48  and  _49
REMARK   17  A    between atoms: _48  and  _51
REMARK   18  A    between atoms: _51  and  _52
REMARK   19  A    between atoms: _58  and  _60
REMARK   20  A    between atoms: _60  and  _61
REMARK   21  A    between atoms: _60  and  _63
REMARK   22  A    between atoms: _63  and  _64
REMARK   23  A    between atoms: _70  and  _72
REMARK   24  A    between atoms: _72  and  _73
REMARK   25  A    between atoms: _72  and  _75
REMARK   26  A    between atoms: _75  and  _76
REMARK   27  A    between atoms: _79  and  _81
REMARK   28  A    between atoms: _81  and  _82
REMARK   29  A    between atoms: _81  and  _84
REMARK   30  A    between atoms: _86  and  _88
REMARK   31  A    between atoms: _88  and  _89
REMARK   32  A    between atoms: _88  and  _91
REMARK   33  A    between atoms: _91  and  _92
REMARK   34  A    between atoms: _95  and  _97
REMARK   35  A    between atoms: _97  and  _98
REMARK   36  A    between atoms: _97  and  _100
REMARK   37  A    between atoms: _100  and  _101
REMARK   38  A    between atoms: _103  and  _105
REMARK   39  A    between atoms: _105  and  _106
REMARK   40  A    between atoms: _105  and  _108
REMARK   41  A    between atoms: _111  and  _113
REMARK   42  A    between atoms: _113  and  _114
REMARK   43  A    between atoms: _113  and  _116
REMARK   44  A    between atoms: _116  and  _117
REMARK   45  A    between atoms: _123  and  _125
REMARK   46  A    between atoms: _125  and  _126
REMARK   47  A    between atoms: _125  and  _128
REMARK   48  A    between atoms: _128  and  _129
REMARK   49  A    between atoms: _133  and  _134
REMARK   50  A    between atoms: _139  and  _141
REMARK   51  A    between atoms: _141  and  _142
REMARK   52  A    between atoms: _141  and  _144
REMARK   53  A    between atoms: _144  and  _145
REMARK   54  A    between atoms: _148  and  _150
REMARK   55  A    between atoms: _150  and  _151
REMARK   56  A    between atoms: _150  and  _153
REMARK   57  A    between atoms: _153  and  _154
REMARK   58  A    between atoms: _154  and  _155
REMARK   59  A    between atoms: _155  and  _156
REMARK   60  A    between atoms: _156  and  _157
REMARK   61  A    between atoms: _161  and  _163
REMARK   62  A    between atoms: _163  and  _164
REMARK   63  A    between atoms: _167  and  _169
REMARK   64  A    between atoms: _169  and  _170
REMARK   65  A    between atoms: _169  and  _172
REMARK   66  A    between atoms: _172  and  _173
REMARK   67  A    between atoms: _176  and  _178
REMARK   68  A    between atoms: _178  and  _179
REMARK   69  A    between atoms: _178  and  _181
REMARK   70  A    between atoms: _181  and  _182
REMARK   71  A    between atoms: _185  and  _187
REMARK   72  A    between atoms: _187  and  _188
REMARK   73  A    between atoms: _190  and  _192
REMARK   74  A    between atoms: _192  and  _193
REMARK   75  A    between atoms: _192  and  _195
REMARK   76  A    between atoms: _195  and  _196
REMARK   77  A    between atoms: _201  and  _203
REMARK   78  A    between atoms: _203  and  _204
REMARK   79  A    between atoms: _203  and  _206
REMARK   80  A    between atoms: _206  and  _207
REMARK   81  A    between atoms: _210  and  _212
REMARK   82  A    between atoms: _212  and  _213
REMARK   83  A    between atoms: _212  and  _215
REMARK   84  A    between atoms: _215  and  _216
REMARK   85  A    between atoms: _216  and  _217
REMARK   86  A    between atoms: _217  and  _218
REMARK   87  A    between atoms: _218  and  _219
REMARK   88  A    between atoms: _223  and  _225
REMARK   89  A    between atoms: _225  and  _226
REMARK   90  A    between atoms: _225  and  _228
REMARK   91  A    between atoms: _228  and  _229
REMARK   92  A    between atoms: _229  and  _230
REMARK   93  A    between atoms: _230  and  _231
REMARK   94  A    between atoms: _231  and  _232
REMARK   95  A    between atoms: _236  and  _238
REMARK   96  A    between atoms: _238  and  _239
REMARK   97  A    between atoms: _241  and  _243
REMARK   98  A    between atoms: _243  and  _244
REMARK   99  A    between atoms: _243  and  _246
REMARK  100  A    between atoms: _246  and  _247
REMARK  101  A    between atoms: _250  and  _252
REMARK  102  A    between atoms: _252  and  _253
REMARK  103  A    between atoms: _256  and  _258
REMARK  104  A    between atoms: _258  and  _259
REMARK  105  A    between atoms: _258  and  _261
REMARK  106  A    between atoms: _261  and  _262
REMARK  107  A    between atoms: _265  and  _267
REMARK  108  A    between atoms: _267  and  _268
REMARK  109  A    between atoms: _267  and  _270
REMARK  110  A    between atoms: _270  and  _271
REMARK  111  A    between atoms: _271  and  _272
REMARK  112  A    between atoms: _274  and  _276
REMARK  113  A    between atoms: _276  and  _277
REMARK  114  A    between atoms: _276  and  _279
REMARK  115  A    between atoms: _279  and  _280
REMARK  116  A    between atoms: _290  and  _292
REMARK  117  A    between atoms: _292  and  _293
REMARK  118  A    between atoms: _292  and  _295
REMARK  119  A    between atoms: _295  and  _296
REMARK  120  A    between atoms: _299  and  _301
REMARK  121  A    between atoms: _301  and  _302
REMARK  122  A    between atoms: _301  and  _304
REMARK  123  A    between atoms: _304  and  _305
REMARK  124  A    between atoms: _305  and  _306
REMARK  125  A    between atoms: _306  and  _307
REMARK  126  A    between atoms: _307  and  _308
REMARK  127  A    between atoms: _312  and  _314
REMARK  128  A    between atoms: _314  and  _315
REMARK  129  A    between atoms: _314  and  _317
REMARK  130  A    between atoms: _317  and  _318
REMARK  131  A    between atoms: _318  and  _319
REMARK  132  A    between atoms: _319  and  _320
REMARK  133  A    between atoms: _329  and  _331
REMARK  134  A    between atoms: _331  and  _332
REMARK  135  A    between atoms: _334  and  _336
REMARK  136  A    between atoms: _336  and  _337
REMARK  137  A    between atoms: _336  and  _339
REMARK  138  A    between atoms: _339  and  _340
REMARK  139  A    between atoms: _343  and  _345
REMARK  140  A    between atoms: _345  and  _346
REMARK  141  A    between atoms: _345  and  _348
REMARK  142  A    between atoms: _348  and  _349
REMARK  143  A    between atoms: _349  and  _350
REMARK  144  A    between atoms: _350  and  _351
REMARK  145  A    between atoms: _360  and  _362
REMARK  146  A    between atoms: _362  and  _363
REMARK  147  A    between atoms: _362  and  _365
REMARK  148  A    between atoms: _365  and  _366
REMARK  149  A    between atoms: _372  and  _374
REMARK  150  A    between atoms: _374  and  _375
REMARK  151  A    between atoms: _374  and  _377
REMARK  152  A    between atoms: _377  and  _378
REMARK  153  A    between atoms: _381  and  _383
REMARK  154  A    between atoms: _383  and  _384
REMARK  155  A    between atoms: _383  and  _386
REMARK  156  A    between atoms: _386  and  _387
REMARK  157  A    between atoms: _387  and  _388
REMARK  158  A    between atoms: _393  and  _395
REMARK  159  A    between atoms: _395  and  _396
REMARK  160  A    between atoms: _395  and  _398
REMARK  161  A    between atoms: _398  and  _399
REMARK  162  A    between atoms: _405  and  _407
REMARK  163  A    between atoms: _407  and  _408
REMARK  164  A    between atoms: _407  and  _410
REMARK  165  A    between atoms: _410  and  _411
REMARK  166  A    between atoms: _414  and  _416
REMARK  167  A    between atoms: _416  and  _417
REMARK  168  A    between atoms: _416  and  _419
REMARK  169  A    between atoms: _419  and  _420
REMARK  170  A    between atoms: _423  and  _425
REMARK  171  A    between atoms: _425  and  _426
REMARK  172  A    between atoms: _425  and  _428
REMARK  173  A    between atoms: _428  and  _429
REMARK  174  A    between atoms: _429  and  _430
REMARK  175  A    between atoms: _430  and  _431
REMARK  176  A    between atoms: _440  and  _442
REMARK  177  A    between atoms: _442  and  _443
REMARK  178  A    between atoms: _442  and  _445
REMARK  179  A    between atoms: _445  and  _446
REMARK  180  A    between atoms: _451  and  _453
REMARK  181  A    between atoms: _453  and  _454
REMARK  182  A    between atoms: _457  and  _459
REMARK  183  A    between atoms: _459  and  _460
REMARK  184  A    between atoms: _459  and  _462
REMARK  185  A    between atoms: _462  and  _463
REMARK  186  A    between atoms: _466  and  _468
REMARK  187  A    between atoms: _468  and  _469
REMARK  188  A    between atoms: _472  and  _474
REMARK  189  A    between atoms: _474  and  _475
REMARK  190  A    between atoms: _474  and  _477
REMARK  191  A    between atoms: _477  and  _478
REMARK  192  A    between atoms: _483  and  _484
REMARK  193  A    between atoms: _486  and  _488
REMARK  194  A    between atoms: _488  and  _489
REMARK  195  A    between atoms: _492  and  _494
REMARK  196  A    between atoms: _494  and  _495
REMARK  197  A    between atoms: _494  and  _497
REMARK  198  A    between atoms: _497  and  _498
REMARK  199  A    between atoms: _501  and  _503
REMARK  200  A    between atoms: _503  and  _504
REMARK  201  A    between atoms: _503  and  _506
REMARK  202  A    between atoms: _506  and  _507
REMARK  203  A    between atoms: _507  and  _508
REMARK  204  A    between atoms: _508  and  _509
REMARK  205  A    between atoms: _509  and  _510
REMARK  206  A    between atoms: _514  and  _516
REMARK  207  A    between atoms: _516  and  _517
REMARK  208  A    between atoms: _516  and  _519
REMARK  209  A    between atoms: _519  and  _520
REMARK  210  A    between atoms: _525  and  _526
REMARK  211  A    between atoms: _528  and  _530
REMARK  212  A    between atoms: _530  and  _531
REMARK  213  A    between atoms: _530  and  _533
REMARK  214  A    between atoms: _533  and  _534
REMARK  215  A    between atoms: _539  and  _541
REMARK  216  A    between atoms: _541  and  _542
REMARK  217  A    between atoms: _544  and  _546
REMARK  218  A    between atoms: _546  and  _547
REMARK  219  A    between atoms: _546  and  _549
REMARK  220  A    between atoms: _549  and  _550
REMARK  221  A    between atoms: _553  and  _555
REMARK  222  A    between atoms: _555  and  _556
REMARK  223  A    between atoms: _555  and  _558
REMARK  224  A    between atoms: _561  and  _563
REMARK  225  A    between atoms: _563  and  _564
REMARK  226  A    between atoms: _563  and  _566
REMARK  227  A    between atoms: _566  and  _567
REMARK  228  A    between atoms: _570  and  _572
REMARK  229  A    between atoms: _572  and  _573
REMARK  230  A    between atoms: _572  and  _575
REMARK  231  A    between atoms: _575  and  _576
REMARK  232  A    between atoms: _582  and  _584
REMARK  233  A    between atoms: _584  and  _585
REMARK  234  A    between atoms: _584  and  _587
REMARK  235  A    between atoms: _587  and  _588
REMARK  236  A    between atoms: _588  and  _589
REMARK  237  A    between atoms: _594  and  _596
REMARK  238  A    between atoms: _596  and  _597
REMARK  239  A    between atoms: _600  and  _602
REMARK  240  A    between atoms: _602  and  _603
REMARK  241  A    between atoms: _606  and  _608
REMARK  242  A    between atoms: _608  and  _609
REMARK  243  A    between atoms: _608  and  _611
REMARK  244  A    between atoms: _611  and  _612
REMARK  245  A    between atoms: _615  and  _617
REMARK  246  A    between atoms: _617  and  _618
REMARK  247  A    between atoms: _617  and  _620
REMARK  248  A    between atoms: _620  and  _621
REMARK  249  A    between atoms: _626  and  _627
REMARK  250  A    between atoms: _629  and  _631
REMARK  251  A    between atoms: _631  and  _632
REMARK  252  A    between atoms: _635  and  _637
REMARK  253  A    between atoms: _637  and  _638
REMARK  254  A    between atoms: _642  and  _643
REMARK  255  A    between atoms: _648  and  _650
REMARK  256  A    between atoms: _650  and  _651
REMARK  257  A    between atoms: _650  and  _653
REMARK  258  A    between atoms: _653  and  _654
REMARK  259  A    between atoms: _660  and  _662
REMARK  260  A    between atoms: _662  and  _663
REMARK  261  A    between atoms: _662  and  _665
REMARK  262  A    between atoms: _665  and  _666
REMARK  263  A    between atoms: _669  and  _671
REMARK  264  A    between atoms: _671  and  _672
REMARK  265  A    between atoms: _671  and  _674
REMARK  266  A    between atoms: _674  and  _675
REMARK  267  A    between atoms: _681  and  _683
REMARK  268  A    between atoms: _683  and  _684
REMARK  269  A    between atoms: _683  and  _686
REMARK  270  A    between atoms: _686  and  _687
REMARK  271  A    between atoms: _692  and  _693
REMARK  272  A    between atoms: _695  and  _697
REMARK  273  A    between atoms: _697  and  _698
REMARK  274  A    between atoms: _697  and  _700
REMARK  275  A    between atoms: _700  and  _701
REMARK  276  A    between atoms: _706  and  _707
REMARK  277  A    between atoms: _709  and  _711
REMARK  278  A    between atoms: _711  and  _712
REMARK  279  A    between atoms: _711  and  _714
REMARK  280  A    between atoms: _714  and  _715
REMARK  281  A    between atoms: _715  and  _716
REMARK  282  A    between atoms: _716  and  _717
REMARK  283  A    between atoms: _717  and  _718
REMARK  284  A    between atoms: _722  and  _724
REMARK  285  A    between atoms: _724  and  _725
REMARK  286  A    between atoms: _724  and  _727
REMARK                            x       y       z     vdW  Elec       q    Type
REMARK                         _______ _______ _______ _____ _____    ______ ____
ROOT
ATOM      1  CA  ARG A   2       5.722 -15.404  21.848  0.00  0.00    +0.137 C 
ENDROOT
BRANCH   1   3
ATOM      2  C   ILE A   1       3.870 -13.849  21.519  0.00  0.00    +0.238 C 
ATOM      3  N   ARG A   2       4.355 -14.969  22.037  0.00  0.00    -0.298 N 
ATOM      4  H   ARG A   2       3.721 -15.564  22.608  0.00  0.00    +0.150 HD
ATOM      5  O   ILE A   1       4.530 -13.070  20.825  0.00  0.00    -0.274 OA
BRANCH   2   6
ATOM      6  CA  ILE A   1       2.407 -13.560  21.837  0.00  0.00    +0.145 C 
BRANCH   6   7
ATOM      7  N   ILE A   1       1.964 -14.343  22.993  0.00  0.00    -0.238 NA
ATOM      8  H   ILE A   1       2.485 -14.261  23.889  0.00  0.00    +0.142 HD
ENDBRANCH   6   7
BRANCH   6   9
ATOM      9  CB  ILE A   1       2.234 -12.034  21.990  0.00  0.00    +0.025 C 
ATOM     10  CG2 ILE A   1       0.766 -11.655  22.052  0.00  0.00    +0.002 C 
BRANCH   9  11
ATOM     11  CG1 ILE A   1       3.024 -11.522  23.204  0.00  0.00    +0.002 C 
ATOM     12  CD1 ILE A   1       2.923 -10.040  23.420  0.00  0.00    +0.000 C 
ENDBRANCH   9  11
ENDBRANCH   6   9
ENDBRANCH   2   6
ENDBRANCH   1   3
BRANCH   1  13
ATOM     13  C   ARG A   2       6.069 -15.758  20.404  0.00  0.00    +0.227 C 
ATOM     14  O   ARG A   2       7.137 -15.407  19.921  0.00  0.00    -0.286 OA
ENDBRANCH   1  13
BRANCH   1  15
ATOM     15  CB  ARG A   2       6.048 -16.525  22.830  0.00  0.00    +0.031 C 
BRANCH  15  16
ATOM     16  CG  ARG A   2       5.618 -16.080  24.232  0.00  0.00    +0.045 C 
BRANCH  16  17
ATOM     17  CD  ARG A   2       6.668 -16.320  25.296  0.00  0.00    +0.174 C 
BRANCH  17  18
ATOM     18  NE  ARG A   2       6.497 -17.662  25.843  0.00  0.00    -0.265 N 
ATOM     19  HE  ARG A   2       5.808 -17.787  26.612  0.00  0.00    +0.259 HD
ATOM     20  CZ  ARG A   2       7.160 -18.736  25.427  0.00  0.00    +0.342 C 
ATOM     21  NH2 ARG A   2       6.904 -19.910  26.001  0.00  0.00    -0.292 N 
ATOM     22 HH21 ARG A   2       6.196 -19.974  26.760  0.00  0.00    +0.255 HD
ATOM     23 HH22 ARG A   2       7.412 -20.763  25.690  0.00  0.00    +0.255 HD
ATOM     24  NH1 ARG A   2       8.076 -18.650  24.463  0.00  0.00    -0.292 N 
ATOM     25 HH11 ARG A   2       8.584 -19.502  24.151  0.00  0.00    +0.255 HD
ATOM     26 HH12 ARG A   2       8.283 -17.731  24.022  0.00  0.00    +0.255 HD
ENDBRANCH  17  18
ENDBRANCH  16  17
ENDBRANCH  15  16
ENDBRANCH   1  15
TORSDOF 10
REMARK  Name = ../refined-set-2016/2euk/2euk_pocket.pdb
REMARK  286 active torsions:
REMARK  status: ('A' for Active; 'I' for Inactive)
REMARK    1  A    between atoms: _1  and  _5
REMARK    2  A    between atoms: _5  and  _6
REMARK    3  A    between atoms: _5  and  _8
REMARK    4  A    between atoms: _8  and  _9
REMARK    5  A    between atoms: _12  and  _14
REMARK    6  A    between atoms: _14  and  _15
REMARK    7  A    between atoms: _14  and  _17
REMARK    8  A    between atoms: _17  and  _18
REMARK    9  A    between atoms: _23  and  _25
REMARK   10  A    between atoms: _25  and  _26
REMARK   11  A    between atoms: _25  and  _28
REMARK   12  A    between atoms: _28  and  _29
REMARK   13  A    between atoms: _33  and  _34
REMARK   14  A    between atoms: _40  and  _41
REMARK   15  A    between atoms: _46  and  _48
REMARK   16  A    between atoms: _48  and  _49
REMARK   17  A    between atoms: _48  and  _51
REMARK   18  A    between atoms: _51  and  _52
REMARK   19  A    between atoms: _58  and  _60
REMARK   20  A    between atoms: _60  and  _61
REMARK   21  A    between atoms: _60  and  _63
REMARK   22  A    between atoms: _63  and  _64
REMARK   23  A    between atoms: _70  and  _72
REMARK   24  A    between atoms: _72  and  _73
REMARK   25  A    between atoms: _72  and  _75
REMARK   26  A    between atoms: _75  and  _76
REMARK   27  A    between atoms: _79  and  _81
REMARK   28  A    between atoms: _81  and  _82
REMARK   29  A    between atoms: _81  and  _84
REMARK   30  A    between atoms: _86  and  _88
REMARK   31  A    between atoms: _88  and  _89
REMARK   32  A    between atoms: _88  and  _91
REMARK   33  A    between atoms: _91  and  _92
REMARK   34  A    between atoms: _95  and  _97
REMARK   35  A    between atoms: _97  and  _98
REMARK   36  A    between atoms: _97  and  _100
REMARK   37  A    between atoms: _100  and  _101
REMARK   38  A    between atoms: _103  and  _105
REMARK   39  A    between atoms: _105  and  _106
REMARK   40  A    between atoms: _105  and  _108
REMARK   41  A    between atoms: _111  and  _113
REMARK   42  A    between atoms: _113  and  _114
REMARK   43  A    between atoms: _113  and  _116
REMARK   44  A    between atoms: _116  and  _117
REMARK   45  A    between atoms: _123  and  _125
REMARK   46  A    between atoms: _125  and  _126
REMARK   47  A    between atoms: _125  and  _128
REMARK   48  A    between atoms: _128  and  _129
REMARK   49  A    between atoms: _133  and  _134
REMARK   50  A    between atoms: _139  and  _141
REMARK   51  A    between atoms: _141  and  _142
REMARK   52  A    between atoms: _141  and  _144
REMARK   53  A    between atoms: _144  and  _145
REMARK   54  A    between atoms: _148  and  _150
REMARK   55  A    between atoms: _150  and  _151
REMARK   56  A    between atoms: _150  and  _153
REMARK   57  A    between atoms: _153  and  _154
REMARK   58  A    between atoms: _154  and  _155
REMARK   59  A    between atoms: _155  and  _156
REMARK   60  A    between atoms: _156  and  _157
REMARK   61  A    between atoms: _161  and  _163
REMARK   62  A    between atoms: _163  and  _164
REMARK   63  A    between atoms: _167  and  _169
REMARK   64  A    between atoms: _169  and  _170
REMARK   65  A    between atoms: _169  and  _172
REMARK   66  A    between atoms: _172  and  _173
REMARK   67  A    between atoms: _176  and  _178
REMARK   68  A    between atoms: _178  and  _179
REMARK   69  A    between atoms: _178  and  _181
REMARK   70  A    between atoms: _181  and  _182
REMARK   71  A    between atoms: _185  and  _187
REMARK   72  A    between atoms: _187  and  _188
REMARK   73  A    between atoms: _190  and  _192
REMARK   74  A    between atoms: _192  and  _193
REMARK   75  A    between atoms: _192  and  _195
REMARK   76  A    between atoms: _195  and  _196
REMARK   77  A    between atoms: _201  and  _203
REMARK   78  A    between atoms: _203  and  _204
REMARK   79  A    between atoms: _203  and  _206
REMARK   80  A    between atoms: _206  and  _207
REMARK   81  A    between atoms: _210  and  _212
REMARK   82  A    between atoms: _212  and  _213
REMARK   83  A    between atoms: _212  and  _215
REMARK   84  A    between atoms: _215  and  _216
REMARK   85  A    between atoms: _216  and  _217
REMARK   86  A    between atoms: _217  and  _218
REMARK   87  A    between atoms: _218  and  _219
REMARK   88  A    between atoms: _223  and  _225
REMARK   89  A    between atoms: _225  and  _226
REMARK   90  A    between atoms: _225  and  _228
REMARK   91  A    between atoms: _228  and  _229
REMARK   92  A    between atoms: _229  and  _230
REMARK   93  A    between atoms: _230  and  _231
REMARK   94  A    between atoms: _231  and  _232
REMARK   95  A    between atoms: _236  and  _238
REMARK   96  A    between atoms: _238  and  _239
REMARK   97  A    between atoms: _241  and  _243
REMARK   98  A    between atoms: _243  and  _244
REMARK   99  A    between atoms: _243  and  _246
REMARK  100  A    between atoms: _246  and  _247
REMARK  101  A    between atoms: _250  and  _252
REMARK  102  A    between atoms: _252  and  _253
REMARK  103  A    between atoms: _256  and  _258
REMARK  104  A    between atoms: _258  and  _259
REMARK  105  A    between atoms: _258  and  _261
REMARK  106  A    between atoms: _261  and  _262
REMARK  107  A    between atoms: _265  and  _267
REMARK  108  A    between atoms: _267  and  _268
REMARK  109  A    between atoms: _267  and  _270
REMARK  110  A    between atoms: _270  and  _271
REMARK  111  A    between atoms: _271  and  _272
REMARK  112  A    between atoms: _274  and  _276
REMARK  113  A    between atoms: _276  and  _277
REMARK  114  A    between atoms: _276  and  _279
REMARK  115  A    between atoms: _279  and  _280
REMARK  116  A    between atoms: _290  and  _292
REMARK  117  A    between atoms: _292  and  _293
REMARK  118  A    between atoms: _292  and  _295
REMARK  119  A    between atoms: _295  and  _296
REMARK  120  A    between atoms: _299  and  _301
REMARK  121  A    between atoms: _301  and  _302
REMARK  122  A    between atoms: _301  and  _304
REMARK  123  A    between atoms: _304  and  _305
REMARK  124  A    between atoms: _305  and  _306
REMARK  125  A    between atoms: _306  and  _307
REMARK  126  A    between atoms: _307  and  _308
REMARK  127  A    between atoms: _312  and  _314
REMARK  128  A    between atoms: _314  and  _315
REMARK  129  A    between atoms: _314  and  _317
REMARK  130  A    between atoms: _317  and  _318
REMARK  131  A    between atoms: _318  and  _319
REMARK  132  A    between atoms: _319  and  _320
REMARK  133  A    between atoms: _329  and  _331
REMARK  134  A    between atoms: _331  and  _332
REMARK  135  A    between atoms: _334  and  _336
REMARK  136  A    between atoms: _336  and  _337
REMARK  137  A    between atoms: _336  and  _339
REMARK  138  A    between atoms: _339  and  _340
REMARK  139  A    between atoms: _343  and  _345
REMARK  140  A    between atoms: _345  and  _346
REMARK  141  A    between atoms: _345  and  _348
REMARK  142  A    between atoms: _348  and  _349
REMARK  143  A    between atoms: _349  and  _350
REMARK  144  A    between atoms: _350  and  _351
REMARK  145  A    between atoms: _360  and  _362
REMARK  146  A    between atoms: _362  and  _363
REMARK  147  A    between atoms: _362  and  _365
REMARK  148  A    between atoms: _365  and  _366
REMARK  149  A    between atoms: _372  and  _374
REMARK  150  A    between atoms: _374  and  _375
REMARK  151  A    between atoms: _374  and  _377
REMARK  152  A    between atoms: _377  and  _378
REMARK  153  A    between atoms: _381  and  _383
REMARK  154  A    between atoms: _383  and  _384
REMARK  155  A    between atoms: _383  and  _386
REMARK  156  A    between atoms: _386  and  _387
REMARK  157  A    between atoms: _387  and  _388
REMARK  158  A    between atoms: _393  and  _395
REMARK  159  A    between atoms: _395  and  _396
REMARK  160  A    between atoms: _395  and  _398
REMARK  161  A    between atoms: _398  and  _399
REMARK  162  A    between atoms: _405  and  _407
REMARK  163  A    between atoms: _407  and  _408
REMARK  164  A    between atoms: _407  and  _410
REMARK  165  A    between atoms: _410  and  _411
REMARK  166  A    between atoms: _414  and  _416
REMARK  167  A    between atoms: _416  and  _417
REMARK  168  A    between atoms: _416  and  _419
REMARK  169  A    between atoms: _419  and  _420
REMARK  170  A    between atoms: _423  and  _425
REMARK  171  A    between atoms: _425  and  _426
REMARK  172  A    between atoms: _425  and  _428
REMARK  173  A    between atoms: _428  and  _429
REMARK  174  A    between atoms: _429  and  _430
REMARK  175  A    between atoms: _430  and  _431
REMARK  176  A    between atoms: _440  and  _442
REMARK  177  A    between atoms: _442  and  _443
REMARK  178  A    between atoms: _442  and  _445
REMARK  179  A    between atoms: _445  and  _446
REMARK  180  A    between atoms: _451  and  _453
REMARK  181  A    between atoms: _453  and  _454
REMARK  182  A    between atoms: _457  and  _459
REMARK  183  A    between atoms: _459  and  _460
REMARK  184  A    between atoms: _459  and  _462
REMARK  185  A    between atoms: _462  and  _463
REMARK  186  A    between atoms: _466  and  _468
REMARK  187  A    between atoms: _468  and  _469
REMARK  188  A    between atoms: _472  and  _474
REMARK  189  A    between atoms: _474  and  _475
REMARK  190  A    between atoms: _474  and  _477
REMARK  191  A    between atoms: _477  and  _478
REMARK  192  A    between atoms: _483  and  _484
REMARK  193  A    between atoms: _486  and  _488
REMARK  194  A    between atoms: _488  and  _489
REMARK  195  A    between atoms: _492  and  _494
REMARK  196  A    between atoms: _494  and  _495
REMARK  197  A    between atoms: _494  and  _497
REMARK  198  A    between atoms: _497  and  _498
REMARK  199  A    between atoms: _501  and  _503
REMARK  200  A    between atoms: _503  and  _504
REMARK  201  A    between atoms: _503  and  _506
REMARK  202  A    between atoms: _506  and  _507
REMARK  203  A    between atoms: _507  and  _508
REMARK  204  A    between atoms: _508  and  _509
REMARK  205  A    between atoms: _509  and  _510
REMARK  206  A    between atoms: _514  and  _516
REMARK  207  A    between atoms: _516  and  _517
REMARK  208  A    between atoms: _516  and  _519
REMARK  209  A    between atoms: _519  and  _520
REMARK  210  A    between atoms: _525  and  _526
REMARK  211  A    between atoms: _528  and  _530
REMARK  212  A    between atoms: _530  and  _531
REMARK  213  A    between atoms: _530  and  _533
REMARK  214  A    between atoms: _533  and  _534
REMARK  215  A    between atoms: _539  and  _541
REMARK  216  A    between atoms: _541  and  _542
REMARK  217  A    between atoms: _544  and  _546
REMARK  218  A    between atoms: _546  and  _547
REMARK  219  A    between atoms: _546  and  _549
REMARK  220  A    between atoms: _549  and  _550
REMARK  221  A    between atoms: _553  and  _555
REMARK  222  A    between atoms: _555  and  _556
REMARK  223  A    between atoms: _555  and  _558
REMARK  224  A    between atoms: _561  and  _563
REMARK  225  A    between atoms: _563  and  _564
REMARK  226  A    between atoms: _563  and  _566
REMARK  227  A    between atoms: _566  and  _567
REMARK  228  A    between atoms: _570  and  _572
REMARK  229  A    between atoms: _572  and  _573
REMARK  230  A    between atoms: _572  and  _575
REMARK  231  A    between atoms: _575  and  _576
REMARK  232  A    between atoms: _582  and  _584
REMARK  233  A    between atoms: _584  and  _585
REMARK  234  A    between atoms: _584  and  _587
REMARK  235  A    between atoms: _587  and  _588
REMARK  236  A    between atoms: _588  and  _589
REMARK  237  A    between atoms: _594  and  _596
REMARK  238  A    between atoms: _596  and  _597
REMARK  239  A    between atoms: _600  and  _602
REMARK  240  A    between atoms: _602  and  _603
REMARK  241  A    between atoms: _606  and  _608
REMARK  242  A    between atoms: _608  and  _609
REMARK  243  A    between atoms: _608  and  _611
REMARK  244  A    between atoms: _611  and  _612
REMARK  245  A    between atoms: _615  and  _617
REMARK  246  A    between atoms: _617  and  _618
REMARK  247  A    between atoms: _617  and  _620
REMARK  248  A    between atoms: _620  and  _621
REMARK  249  A    between atoms: _626  and  _627
REMARK  250  A    between atoms: _629  and  _631
REMARK  251  A    between atoms: _631  and  _632
REMARK  252  A    between atoms: _635  and  _637
REMARK  253  A    between atoms: _637  and  _638
REMARK  254  A    between atoms: _642  and  _643
REMARK  255  A    between atoms: _648  and  _650
REMARK  256  A    between atoms: _650  and  _651
REMARK  257  A    between atoms: _650  and  _653
REMARK  258  A    between atoms: _653  and  _654
REMARK  259  A    between atoms: _660  and  _662
REMARK  260  A    between atoms: _662  and  _663
REMARK  261  A    between atoms: _662  and  _665
REMARK  262  A    between atoms: _665  and  _666
REMARK  263  A    between atoms: _669  and  _671
REMARK  264  A    between atoms: _671  and  _672
REMARK  265  A    between atoms: _671  and  _674
REMARK  266  A    between atoms: _674  and  _675
REMARK  267  A    between atoms: _681  and  _683
REMARK  268  A    between atoms: _683  and  _684
REMARK  269  A    between atoms: _683  and  _686
REMARK  270  A    between atoms: _686  and  _687
REMARK  271  A    between atoms: _692  and  _693
REMARK  272  A    between atoms: _695  and  _697
REMARK  273  A    between atoms: _697  and  _698
REMARK  274  A    between atoms: _697  and  _700
REMARK  275  A    between atoms: _700  and  _701
REMARK  276  A    between atoms: _706  and  _707
REMARK  277  A    between atoms: _709  and  _711
REMARK  278  A    between atoms: _711  and  _712
REMARK  279  A    between atoms: _711  and  _714
REMARK  280  A    between atoms: _714  and  _715
REMARK  281  A    between atoms: _715  and  _716
REMARK  282  A    between atoms: _716  and  _717
REMARK  283  A    between atoms: _717  and  _718
REMARK  284  A    between atoms: _722  and  _724
REMARK  285  A    between atoms: _724  and  _725
REMARK  286  A    between atoms: _724  and  _727
REMARK                            x       y       z     vdW  Elec       q    Type
REMARK                         _______ _______ _______ _____ _____    ______ ____
ROOT
ATOM      1  C   ASN A   1       5.888 -12.351  17.275  0.00  0.00    +0.239 C 
ATOM      2  N   ALA A   2       6.343 -12.371  18.520  0.00  0.00    -0.297 N 
ATOM      3  H   ALA A   2       5.830 -12.898  19.255  0.00  0.00    +0.150 HD
ATOM      4  O   ASN A   1       6.491 -11.793  16.353  0.00  0.00    -0.274 OA
ENDROOT
BRANCH   2   5
ATOM      5  CA  ALA A   2       7.572 -11.647  18.855  0.00  0.00    +0.149 C 
ATOM      6  CB  ALA A   2       7.668 -11.575  20.370  0.00  0.00    +0.031 C 
BRANCH   5   7
ATOM      7  C   ALA A   2       8.802 -12.314  18.245  0.00  0.00    +0.241 C 
ATOM      8  N   THR A   3       8.852 -13.637  18.379  0.00  0.00    -0.296 N 
ATOM      9  H   THR A   3       8.124 -14.110  18.952  0.00  0.00    +0.150 HD
ATOM     10  O   ALA A   2       9.708 -11.656  17.688  0.00  0.00    -0.273 OA
BRANCH   8  11
ATOM     11  CA  THR A   3       9.893 -14.452  17.750  0.00  0.00    +0.164 C 
BRANCH  11  12
ATOM     12  CB  THR A   3       9.773 -15.958  18.127  0.00  0.00    +0.136 C 
ATOM     13  CG2 THR A   3      10.876 -16.793  17.497  0.00  0.00    +0.034 C 
BRANCH  12  14
ATOM     14  OG1 THR A   3       9.865 -16.098  19.551  0.00  0.00    -0.382 OA
ATOM     15  HG1 THR A   3       9.132 -15.589  19.980  0.00  0.00    +0.210 HD
ENDBRANCH  12  14
ENDBRANCH  11  12
BRANCH  11  16
ATOM     16  C   THR A   3       9.971 -14.220  16.237  0.00  0.00    +0.229 C 
ATOM     17  O   THR A   3      11.063 -14.048  15.729  0.00  0.00    -0.286 OA
ENDBRANCH  11  16
ENDBRANCH   8  11
ENDBRANCH   5   7
ENDBRANCH   2   5
BRANCH   1  18
ATOM     18  CA  ASN A   1       4.593 -13.140  17.043  0.00  0.00    +0.154 C 
BRANCH  18  19
ATOM     19  N   ASN A   1       4.639 -14.418  17.771  0.00  0.00    -0.238 NA
ATOM     20  H   ASN A   1       4.006 -14.554  18.585  0.00  0.00    +0.142 HD
ENDBRANCH  18  19
BRANCH  18  21
ATOM     21  CB  ASN A   1       3.391 -12.341  17.529  0.00  0.00    +0.111 C 
BRANCH  21  22
ATOM     22  CG  ASN A   1       2.126 -13.180  17.517  0.00  0.00    +0.221 C 
ATOM     23  ND2 ASN A   1       1.801 -13.759  18.654  0.00  0.00    -0.329 N 
ATOM     24 HD21 ASN A   1       2.356 -13.567  19.513  0.00  0.00    +0.145 HD
ATOM     25 HD22 ASN A   1       0.990 -14.409  18.694  0.00  0.00    +0.145 HD
ATOM     26  OD1 ASN A   1       1.509 -13.370  16.478  0.00  0.00    -0.275 OA
ENDBRANCH  21  22
ENDBRANCH  18  21
ENDBRANCH   1  18
TORSDOF 10
REMARK  Name = ../refined-set-2016/2euk/2euk_pocket.pdb
REMARK  286 active torsions:
REMARK  status: ('A' for Active; 'I' for Inactive)
REMARK    1  A    between atoms: _1  and  _5
REMARK    2  A    between atoms: _5  and  _6
REMARK    3  A    between atoms: _5  and  _8
REMARK    4  A    between atoms: _8  and  _9
REMARK    5  A    between atoms: _12  and  _14
REMARK    6  A    between atoms: _14  and  _15
REMARK    7  A    between atoms: _14  and  _17
REMARK    8  A    between atoms: _17  and  _18
REMARK    9  A    between atoms: _23  and  _25
REMARK   10  A    between atoms: _25  and  _26
REMARK   11  A    between atoms: _25  and  _28
REMARK   12  A    between atoms: _28  and  _29
REMARK   13  A    between atoms: _33  and  _34
REMARK   14  A    between atoms: _40  and  _41
REMARK   15  A    between atoms: _46  and  _48
REMARK   16  A    between atoms: _48  and  _49
REMARK   17  A    between atoms: _48  and  _51
REMARK   18  A    between atoms: _51  and  _52
REMARK   19  A    between atoms: _58  and  _60
REMARK   20  A    between atoms: _60  and  _61
REMARK   21  A    between atoms: _60  and  _63
REMARK   22  A    between atoms: _63  and  _64
REMARK   23  A    between atoms: _70  and  _72
REMARK   24  A    between atoms: _72  and  _73
REMARK   25  A    between atoms: _72  and  _75
REMARK   26  A    between atoms: _75  and  _76
REMARK   27  A    between atoms: _79  and  _81
REMARK   28  A    between atoms: _81  and  _82
REMARK   29  A    between atoms: _81  and  _84
REMARK   30  A    between atoms: _86  and  _88
REMARK   31  A    between atoms: _88  and  _89
REMARK   32  A    between atoms: _88  and  _91
REMARK   33  A    between atoms: _91  and  _92
REMARK   34  A    between atoms: _95  and  _97
REMARK   35  A    between atoms: _97  and  _98
REMARK   36  A    between atoms: _97  and  _100
REMARK   37  A    between atoms: _100  and  _101
REMARK   38  A    between atoms: _103  and  _105
REMARK   39  A    between atoms: _105  and  _106
REMARK   40  A    between atoms: _105  and  _108
REMARK   41  A    between atoms: _111  and  _113
REMARK   42  A    between atoms: _113  and  _114
REMARK   43  A    between atoms: _113  and  _116
REMARK   44  A    between atoms: _116  and  _117
REMARK   45  A    between atoms: _123  and  _125
REMARK   46  A    between atoms: _125  and  _126
REMARK   47  A    between atoms: _125  and  _128
REMARK   48  A    between atoms: _128  and  _129
REMARK   49  A    between atoms: _133  and  _134
REMARK   50  A    between atoms: _139  and  _141
REMARK   51  A    between atoms: _141  and  _142
REMARK   52  A    between atoms: _141  and  _144
REMARK   53  A    between atoms: _144  and  _145
REMARK   54  A    between atoms: _148  and  _150
REMARK   55  A    between atoms: _150  and  _151
REMARK   56  A    between atoms: _150  and  _153
REMARK   57  A    between atoms: _153  and  _154
REMARK   58  A    between atoms: _154  and  _155
REMARK   59  A    between atoms: _155  and  _156
REMARK   60  A    between atoms: _156  and  _157
REMARK   61  A    between atoms: _161  and  _163
REMARK   62  A    between atoms: _163  and  _164
REMARK   63  A    between atoms: _167  and  _169
REMARK   64  A    between atoms: _169  and  _170
REMARK   65  A    between atoms: _169  and  _172
REMARK   66  A    between atoms: _172  and  _173
REMARK   67  A    between atoms: _176  and  _178
REMARK   68  A    between atoms: _178  and  _179
REMARK   69  A    between atoms: _178  and  _181
REMARK   70  A    between atoms: _181  and  _182
REMARK   71  A    between atoms: _185  and  _187
REMARK   72  A    between atoms: _187  and  _188
REMARK   73  A    between atoms: _190  and  _192
REMARK   74  A    between atoms: _192  and  _193
REMARK   75  A    between atoms: _192  and  _195
REMARK   76  A    between atoms: _195  and  _196
REMARK   77  A    between atoms: _201  and  _203
REMARK   78  A    between atoms: _203  and  _204
REMARK   79  A    between atoms: _203  and  _206
REMARK   80  A    between atoms: _206  and  _207
REMARK   81  A    between atoms: _210  and  _212
REMARK   82  A    between atoms: _212  and  _213
REMARK   83  A    between atoms: _212  and  _215
REMARK   84  A    between atoms: _215  and  _216
REMARK   85  A    between atoms: _216  and  _217
REMARK   86  A    between atoms: _217  and  _218
REMARK   87  A    between atoms: _218  and  _219
REMARK   88  A    between atoms: _223  and  _225
REMARK   89  A    between atoms: _225  and  _226
REMARK   90  A    between atoms: _225  and  _228
REMARK   91  A    between atoms: _228  and  _229
REMARK   92  A    between atoms: _229  and  _230
REMARK   93  A    between atoms: _230  and  _231
REMARK   94  A    between atoms: _231  and  _232
REMARK   95  A    between atoms: _236  and  _238
REMARK   96  A    between atoms: _238  and  _239
REMARK   97  A    between atoms: _241  and  _243
REMARK   98  A    between atoms: _243  and  _244
REMARK   99  A    between atoms: _243  and  _246
REMARK  100  A    between atoms: _246  and  _247
REMARK  101  A    between atoms: _250  and  _252
REMARK  102  A    between atoms: _252  and  _253
REMARK  103  A    between atoms: _256  and  _258
REMARK  104  A    between atoms: _258  and  _259
REMARK  105  A    between atoms: _258  and  _261
REMARK  106  A    between atoms: _261  and  _262
REMARK  107  A    between atoms: _265  and  _267
REMARK  108  A    between atoms: _267  and  _268
REMARK  109  A    between atoms: _267  and  _270
REMARK  110  A    between atoms: _270  and  _271
REMARK  111  A    between atoms: _271  and  _272
REMARK  112  A    between atoms: _274  and  _276
REMARK  113  A    between atoms: _276  and  _277
REMARK  114  A    between atoms: _276  and  _279
REMARK  115  A    between atoms: _279  and  _280
REMARK  116  A    between atoms: _290  and  _292
REMARK  117  A    between atoms: _292  and  _293
REMARK  118  A    between atoms: _292  and  _295
REMARK  119  A    between atoms: _295  and  _296
REMARK  120  A    between atoms: _299  and  _301
REMARK  121  A    between atoms: _301  and  _302
REMARK  122  A    between atoms: _301  and  _304
REMARK  123  A    between atoms: _304  and  _305
REMARK  124  A    between atoms: _305  and  _306
REMARK  125  A    between atoms: _306  and  _307
REMARK  126  A    between atoms: _307  and  _308
REMARK  127  A    between atoms: _312  and  _314
REMARK  128  A    between atoms: _314  and  _315
REMARK  129  A    between atoms: _314  and  _317
REMARK  130  A    between atoms: _317  and  _318
REMARK  131  A    between atoms: _318  and  _319
REMARK  132  A    between atoms: _319  and  _320
REMARK  133  A    between atoms: _329  and  _331
REMARK  134  A    between atoms: _331  and  _332
REMARK  135  A    between atoms: _334  and  _336
REMARK  136  A    between atoms: _336  and  _337
REMARK  137  A    between atoms: _336  and  _339
REMARK  138  A    between atoms: _339  and  _340
REMARK  139  A    between atoms: _343  and  _345
REMARK  140  A    between atoms: _345  and  _346
REMARK  141  A    between atoms: _345  and  _348
REMARK  142  A    between atoms: _348  and  _349
REMARK  143  A    between atoms: _349  and  _350
REMARK  144  A    between atoms: _350  and  _351
REMARK  145  A    between atoms: _360  and  _362
REMARK  146  A    between atoms: _362  and  _363
REMARK  147  A    between atoms: _362  and  _365
REMARK  148  A    between atoms: _365  and  _366
REMARK  149  A    between atoms: _372  and  _374
REMARK  150  A    between atoms: _374  and  _375
REMARK  151  A    between atoms: _374  and  _377
REMARK  152  A    between atoms: _377  and  _378
REMARK  153  A    between atoms: _381  and  _383
REMARK  154  A    between atoms: _383  and  _384
REMARK  155  A    between atoms: _383  and  _386
REMARK  156  A    between atoms: _386  and  _387
REMARK  157  A    between atoms: _387  and  _388
REMARK  158  A    between atoms: _393  and  _395
REMARK  159  A    between atoms: _395  and  _396
REMARK  160  A    between atoms: _395  and  _398
REMARK  161  A    between atoms: _398  and  _399
REMARK  162  A    between atoms: _405  and  _407
REMARK  163  A    between atoms: _407  and  _408
REMARK  164  A    between atoms: _407  and  _410
REMARK  165  A    between atoms: _410  and  _411
REMARK  166  A    between atoms: _414  and  _416
REMARK  167  A    between atoms: _416  and  _417
REMARK  168  A    between atoms: _416  and  _419
REMARK  169  A    between atoms: _419  and  _420
REMARK  170  A    between atoms: _423  and  _425
REMARK  171  A    between atoms: _425  and  _426
REMARK  172  A    between atoms: _425  and  _428
REMARK  173  A    between atoms: _428  and  _429
REMARK  174  A    between atoms: _429  and  _430
REMARK  175  A    between atoms: _430  and  _431
REMARK  176  A    between atoms: _440  and  _442
REMARK  177  A    between atoms: _442  and  _443
REMARK  178  A    between atoms: _442  and  _445
REMARK  179  A    between atoms: _445  and  _446
REMARK  180  A    between atoms: _451  and  _453
REMARK  181  A    between atoms: _453  and  _454
REMARK  182  A    between atoms: _457  and  _459
REMARK  183  A    between atoms: _459  and  _460
REMARK  184  A    between atoms: _459  and  _462
REMARK  185  A    between atoms: _462  and  _463
REMARK  186  A    between atoms: _466  and  _468
REMARK  187  A    between atoms: _468  and  _469
REMARK  188  A    between atoms: _472  and  _474
REMARK  189  A    between atoms: _474  and  _475
REMARK  190  A    between atoms: _474  and  _477
REMARK  191  A    between atoms: _477  and  _478
REMARK  192  A    between atoms: _483  and  _484
REMARK  193  A    between atoms: _486  and  _488
REMARK  194  A    between atoms: _488  and  _489
REMARK  195  A    between atoms: _492  and  _494
REMARK  196  A    between atoms: _494  and  _495
REMARK  197  A    between atoms: _494  and  _497
REMARK  198  A    between atoms: _497  and  _498
REMARK  199  A    between atoms: _501  and  _503
REMARK  200  A    between atoms: _503  and  _504
REMARK  201  A    between atoms: _503  and  _506
REMARK  202  A    between atoms: _506  and  _507
REMARK  203  A    between atoms: _507  and  _508
REMARK  204  A    between atoms: _508  and  _509
REMARK  205  A    between atoms: _509  and  _510
REMARK  206  A    between atoms: _514  and  _516
REMARK  207  A    between atoms: _516  and  _517
REMARK  208  A    between atoms: _516  and  _519
REMARK  209  A    between atoms: _519  and  _520
REMARK  210  A    between atoms: _525  and  _526
REMARK  211  A    between atoms: _528  and  _530
REMARK  212  A    between atoms: _530  and  _531
REMARK  213  A    between atoms: _530  and  _533
REMARK  214  A    between atoms: _533  and  _534
REMARK  215  A    between atoms: _539  and  _541
REMARK  216  A    between atoms: _541  and  _542
REMARK  217  A    between atoms: _544  and  _546
REMARK  218  A    between atoms: _546  and  _547
REMARK  219  A    between atoms: _546  and  _549
REMARK  220  A    between atoms: _549  and  _550
REMARK  221  A    between atoms: _553  and  _555
REMARK  222  A    between atoms: _555  and  _556
REMARK  223  A    between atoms: _555  and  _558
REMARK  224  A    between atoms: _561  and  _563
REMARK  225  A    between atoms: _563  and  _564
REMARK  226  A    between atoms: _563  and  _566
REMARK  227  A    between atoms: _566  and  _567
REMARK  228  A    between atoms: _570  and  _572
REMARK  229  A    between atoms: _572  and  _573
REMARK  230  A    between atoms: _572  and  _575
REMARK  231  A    between atoms: _575  and  _576
REMARK  232  A    between atoms: _582  and  _584
REMARK  233  A    between atoms: _584  and  _585
REMARK  234  A    between atoms: _584  and  _587
REMARK  235  A    between atoms: _587  and  _588
REMARK  236  A    between atoms: _588  and  _589
REMARK  237  A    between atoms: _594  and  _596
REMARK  238  A    between atoms: _596  and  _597
REMARK  239  A    between atoms: _600  and  _602
REMARK  240  A    between atoms: _602  and  _603
REMARK  241  A    between atoms: _606  and  _608
REMARK  242  A    between atoms: _608  and  _609
REMARK  243  A    between atoms: _608  and  _611
REMARK  244  A    between atoms: _611  and  _612
REMARK  245  A    between atoms: _615  and  _617
REMARK  246  A    between atoms: _617  and  _618
REMARK  247  A    between atoms: _617  and  _620
REMARK  248  A    between atoms: _620  and  _621
REMARK  249  A    between atoms: _626  and  _627
REMARK  250  A    between atoms: _629  and  _631
REMARK  251  A    between atoms: _631  and  _632
REMARK  252  A    between atoms: _635  and  _637
REMARK  253  A    between atoms: _637  and  _638
REMARK  254  A    between atoms: _642  and  _643
REMARK  255  A    between atoms: _648  and  _650
REMARK  256  A    between atoms: _650  and  _651
REMARK  257  A    between atoms: _650  and  _653
REMARK  258  A    between atoms: _653  and  _654
REMARK  259  A    between atoms: _660  and  _662
REMARK  260  A    between atoms: _662  and  _663
REMARK  261  A    between atoms: _662  and  _665
REMARK  262  A    between atoms: _665  and  _666
REMARK  263  A    between atoms: _669  and  _671
REMARK  264  A    between atoms: _671  and  _672
REMARK  265  A    between atoms: _671  and  _674
REMARK  266  A    between atoms: _674  and  _675
REMARK  267  A    between atoms: _681  and  _683
REMARK  268  A    between atoms: _683  and  _684
REMARK  269  A    between atoms: _683  and  _686
REMARK  270  A    between atoms: _686  and  _687
REMARK  271  A    between atoms: _692  and  _693
REMARK  272  A    between atoms: _695  and  _697
REMARK  273  A    between atoms: _697  and  _698
REMARK  274  A    between atoms: _697  and  _700
REMARK  275  A    between atoms: _700  and  _701
REMARK  276  A    between atoms: _706  and  _707
REMARK  277  A    between atoms: _709  and  _711
REMARK  278  A    between atoms: _711  and  _712
REMARK  279  A    between atoms: _711  and  _714
REMARK  280  A    between atoms: _714  and  _715
REMARK  281  A    between atoms: _715  and  _716
REMARK  282  A    between atoms: _716  and  _717
REMARK  283  A    between atoms: _717  and  _718
REMARK  284  A    between atoms: _722  and  _724
REMARK  285  A    between atoms: _724  and  _725
REMARK  286  A    between atoms: _724  and  _727
REMARK                            x       y       z     vdW  Elec       q    Type
REMARK                         _______ _______ _______ _____ _____    ______ ____
ROOT
ATOM      1  CA  TYR A   2      12.890 -10.733  16.051  0.00  0.00    +0.141 C 
ENDROOT
BRANCH   1   3
ATOM      2  C   ALA A   1      10.978 -10.017  14.708  0.00  0.00    +0.238 C 
ATOM      3  N   TYR A   2      11.459 -10.665  15.768  0.00  0.00    -0.298 N 
ATOM      4  H   TYR A   2      10.795 -11.137  16.414  0.00  0.00    +0.150 HD
ATOM      5  O   ALA A   1      11.710  -9.421  13.904  0.00  0.00    -0.274 OA
BRANCH   2   6
ATOM      6  CA  ALA A   1       9.469 -10.133  14.433  0.00  0.00    +0.145 C 
ATOM      7  CB  ALA A   1       8.637  -9.270  15.384  0.00  0.00    +0.028 C 
BRANCH   6   8
ATOM      8  N   ALA A   1       9.031 -11.521  14.551  0.00  0.00    -0.238 NA
ATOM      9  H   ALA A   1       8.306 -11.751  15.261  0.00  0.00    +0.142 HD
ENDBRANCH   6   8
ENDBRANCH   2   6
ENDBRANCH   1   3
BRANCH   1  10
ATOM     10  C   TYR A   2      13.687 -11.332  14.890  0.00  0.00    +0.227 C 
ATOM     11  O   TYR A   2      14.655 -10.729  14.377  0.00  0.00    -0.286 OA
ENDBRANCH   1  10
BRANCH   1  12
ATOM     12  CB  TYR A   2      13.120 -11.514  17.355  0.00  0.00    +0.054 C 
BRANCH  12  13
ATOM     13  CG  TYR A   2      14.547 -11.452  17.807  0.00  0.00    -0.020 A 
ATOM     14  CD2 TYR A   2      15.100 -10.263  18.270  0.00  0.00    -0.001 A 
ATOM     15  CE2 TYR A   2      16.450 -10.216  18.687  0.00  0.00    +0.036 A 
ATOM     16  CZ  TYR A   2      17.251 -11.364  18.623  0.00  0.00    +0.134 A 
ATOM     17  CE1 TYR A   2      16.712 -12.539  18.140  0.00  0.00    +0.036 A 
ATOM     18  CD1 TYR A   2      15.373 -12.572  17.716  0.00  0.00    -0.001 A 
BRANCH  16  19
ATOM     19  OH  TYR A   2      18.585 -11.370  19.015  0.00  0.00    -0.506 OA
ATOM     20  HH  TYR A   2      18.837 -10.469  19.338  0.00  0.00    +0.292 HD
ENDBRANCH  16  19
ENDBRANCH  12  13
ENDBRANCH   1  12
TORSDOF 7
REMARK  Name = ../refined-set-2016/2euk/2euk_pocket.pdb
REMARK  286 active torsions:
REMARK  status: ('A' for Active; 'I' for Inactive)
REMARK    1  A    between atoms: _1  and  _5
REMARK    2  A    between atoms: _5  and  _6
REMARK    3  A    between atoms: _5  and  _8
REMARK    4  A    between atoms: _8  and  _9
REMARK    5  A    between atoms: _12  and  _14
REMARK    6  A    between atoms: _14  and  _15
REMARK    7  A    between atoms: _14  and  _17
REMARK    8  A    between atoms: _17  and  _18
REMARK    9  A    between atoms: _23  and  _25
REMARK   10  A    between atoms: _25  and  _26
REMARK   11  A    between atoms: _25  and  _28
REMARK   12  A    between atoms: _28  and  _29
REMARK   13  A    between atoms: _33  and  _34
REMARK   14  A    between atoms: _40  and  _41
REMARK   15  A    between atoms: _46  and  _48
REMARK   16  A    between atoms: _48  and  _49
REMARK   17  A    between atoms: _48  and  _51
REMARK   18  A    between atoms: _51  and  _52
REMARK   19  A    between atoms: _58  and  _60
REMARK   20  A    between atoms: _60  and  _61
REMARK   21  A    between atoms: _60  and  _63
REMARK   22  A    between atoms: _63  and  _64
REMARK   23  A    between atoms: _70  and  _72
REMARK   24  A    between atoms: _72  and  _73
REMARK   25  A    between atoms: _72  and  _75
REMARK   26  A    between atoms: _75  and  _76
REMARK   27  A    between atoms: _79  and  _81
REMARK   28  A    between atoms: _81  and  _82
REMARK   29  A    between atoms: _81  and  _84
REMARK   30  A    between atoms: _86  and  _88
REMARK   31  A    between atoms: _88  and  _89
REMARK   32  A    between atoms: _88  and  _91
REMARK   33  A    between atoms: _91  and  _92
REMARK   34  A    between atoms: _95  and  _97
REMARK   35  A    between atoms: _97  and  _98
REMARK   36  A    between atoms: _97  and  _100
REMARK   37  A    between atoms: _100  and  _101
REMARK   38  A    between atoms: _103  and  _105
REMARK   39  A    between atoms: _105  and  _106
REMARK   40  A    between atoms: _105  and  _108
REMARK   41  A    between atoms: _111  and  _113
REMARK   42  A    between atoms: _113  and  _114
REMARK   43  A    between atoms: _113  and  _116
REMARK   44  A    between atoms: _116  and  _117
REMARK   45  A    between atoms: _123  and  _125
REMARK   46  A    between atoms: _125  and  _126
REMARK   47  A    between atoms: _125  and  _128
REMARK   48  A    between atoms: _128  and  _129
REMARK   49  A    between atoms: _133  and  _134
REMARK   50  A    between atoms: _139  and  _141
REMARK   51  A    between atoms: _141  and  _142
REMARK   52  A    between atoms: _141  and  _144
REMARK   53  A    between atoms: _144  and  _145
REMARK   54  A    between atoms: _148  and  _150
REMARK   55  A    between atoms: _150  and  _151
REMARK   56  A    between atoms: _150  and  _153
REMARK   57  A    between atoms: _153  and  _154
REMARK   58  A    between atoms: _154  and  _155
REMARK   59  A    between atoms: _155  and  _156
REMARK   60  A    between atoms: _156  and  _157
REMARK   61  A    between atoms: _161  and  _163
REMARK   62  A    between atoms: _163  and  _164
REMARK   63  A    between atoms: _167  and  _169
REMARK   64  A    between atoms: _169  and  _170
REMARK   65  A    between atoms: _169  and  _172
REMARK   66  A    between atoms: _172  and  _173
REMARK   67  A    between atoms: _176  and  _178
REMARK   68  A    between atoms: _178  and  _179
REMARK   69  A    between atoms: _178  and  _181
REMARK   70  A    between atoms: _181  and  _182
REMARK   71  A    between atoms: _185  and  _187
REMARK   72  A    between atoms: _187  and  _188
REMARK   73  A    between atoms: _190  and  _192
REMARK   74  A    between atoms: _192  and  _193
REMARK   75  A    between atoms: _192  and  _195
REMARK   76  A    between atoms: _195  and  _196
REMARK   77  A    between atoms: _201  and  _203
REMARK   78  A    between atoms: _203  and  _204
REMARK   79  A    between atoms: _203  and  _206
REMARK   80  A    between atoms: _206  and  _207
REMARK   81  A    between atoms: _210  and  _212
REMARK   82  A    between atoms: _212  and  _213
REMARK   83  A    between atoms: _212  and  _215
REMARK   84  A    between atoms: _215  and  _216
REMARK   85  A    between atoms: _216  and  _217
REMARK   86  A    between atoms: _217  and  _218
REMARK   87  A    between atoms: _218  and  _219
REMARK   88  A    between atoms: _223  and  _225
REMARK   89  A    between atoms: _225  and  _226
REMARK   90  A    between atoms: _225  and  _228
REMARK   91  A    between atoms: _228  and  _229
REMARK   92  A    between atoms: _229  and  _230
REMARK   93  A    between atoms: _230  and  _231
REMARK   94  A    between atoms: _231  and  _232
REMARK   95  A    between atoms: _236  and  _238
REMARK   96  A    between atoms: _238  and  _239
REMARK   97  A    between atoms: _241  and  _243
REMARK   98  A    between atoms: _243  and  _244
REMARK   99  A    between atoms: _243  and  _246
REMARK  100  A    between atoms: _246  and  _247
REMARK  101  A    between atoms: _250  and  _252
REMARK  102  A    between atoms: _252  and  _253
REMARK  103  A    between atoms: _256  and  _258
REMARK  104  A    between atoms: _258  and  _259
REMARK  105  A    between atoms: _258  and  _261
REMARK  106  A    between atoms: _261  and  _262
REMARK  107  A    between atoms: _265  and  _267
REMARK  108  A    between atoms: _267  and  _268
REMARK  109  A    between atoms: _267  and  _270
REMARK  110  A    between atoms: _270  and  _271
REMARK  111  A    between atoms: _271  and  _272
REMARK  112  A    between atoms: _274  and  _276
REMARK  113  A    between atoms: _276  and  _277
REMARK  114  A    between atoms: _276  and  _279
REMARK  115  A    between atoms: _279  and  _280
REMARK  116  A    between atoms: _290  and  _292
REMARK  117  A    between atoms: _292  and  _293
REMARK  118  A    between atoms: _292  and  _295
REMARK  119  A    between atoms: _295  and  _296
REMARK  120  A    between atoms: _299  and  _301
REMARK  121  A    between atoms: _301  and  _302
REMARK  122  A    between atoms: _301  and  _304
REMARK  123  A    between atoms: _304  and  _305
REMARK  124  A    between atoms: _305  and  _306
REMARK  125  A    between atoms: _306  and  _307
REMARK  126  A    between atoms: _307  and  _308
REMARK  127  A    between atoms: _312  and  _314
REMARK  128  A    between atoms: _314  and  _315
REMARK  129  A    between atoms: _314  and  _317
REMARK  130  A    between atoms: _317  and  _318
REMARK  131  A    between atoms: _318  and  _319
REMARK  132  A    between atoms: _319  and  _320
REMARK  133  A    between atoms: _329  and  _331
REMARK  134  A    between atoms: _331  and  _332
REMARK  135  A    between atoms: _334  and  _336
REMARK  136  A    between atoms: _336  and  _337
REMARK  137  A    between atoms: _336  and  _339
REMARK  138  A    between atoms: _339  and  _340
REMARK  139  A    between atoms: _343  and  _345
REMARK  140  A    between atoms: _345  and  _346
REMARK  141  A    between atoms: _345  and  _348
REMARK  142  A    between atoms: _348  and  _349
REMARK  143  A    between atoms: _349  and  _350
REMARK  144  A    between atoms: _350  and  _351
REMARK  145  A    between atoms: _360  and  _362
REMARK  146  A    between atoms: _362  and  _363
REMARK  147  A    between atoms: _362  and  _365
REMARK  148  A    between atoms: _365  and  _366
REMARK  149  A    between atoms: _372  and  _374
REMARK  150  A    between atoms: _374  and  _375
REMARK  151  A    between atoms: _374  and  _377
REMARK  152  A    between atoms: _377  and  _378
REMARK  153  A    between atoms: _381  and  _383
REMARK  154  A    between atoms: _383  and  _384
REMARK  155  A    between atoms: _383  and  _386
REMARK  156  A    between atoms: _386  and  _387
REMARK  157  A    between atoms: _387  and  _388
REMARK  158  A    between atoms: _393  and  _395
REMARK  159  A    between atoms: _395  and  _396
REMARK  160  A    between atoms: _395  and  _398
REMARK  161  A    between atoms: _398  and  _399
REMARK  162  A    between atoms: _405  and  _407
REMARK  163  A    between atoms: _407  and  _408
REMARK  164  A    between atoms: _407  and  _410
REMARK  165  A    between atoms: _410  and  _411
REMARK  166  A    between atoms: _414  and  _416
REMARK  167  A    between atoms: _416  and  _417
REMARK  168  A    between atoms: _416  and  _419
REMARK  169  A    between atoms: _419  and  _420
REMARK  170  A    between atoms: _423  and  _425
REMARK  171  A    between atoms: _425  and  _426
REMARK  172  A    between atoms: _425  and  _428
REMARK  173  A    between atoms: _428  and  _429
REMARK  174  A    between atoms: _429  and  _430
REMARK  175  A    between atoms: _430  and  _431
REMARK  176  A    between atoms: _440  and  _442
REMARK  177  A    between atoms: _442  and  _443
REMARK  178  A    between atoms: _442  and  _445
REMARK  179  A    between atoms: _445  and  _446
REMARK  180  A    between atoms: _451  and  _453
REMARK  181  A    between atoms: _453  and  _454
REMARK  182  A    between atoms: _457  and  _459
REMARK  183  A    between atoms: _459  and  _460
REMARK  184  A    between atoms: _459  and  _462
REMARK  185  A    between atoms: _462  and  _463
REMARK  186  A    between atoms: _466  and  _468
REMARK  187  A    between atoms: _468  and  _469
REMARK  188  A    between atoms: _472  and  _474
REMARK  189  A    between atoms: _474  and  _475
REMARK  190  A    between atoms: _474  and  _477
REMARK  191  A    between atoms: _477  and  _478
REMARK  192  A    between atoms: _483  and  _484
REMARK  193  A    between atoms: _486  and  _488
REMARK  194  A    between atoms: _488  and  _489
REMARK  195  A    between atoms: _492  and  _494
REMARK  196  A    between atoms: _494  and  _495
REMARK  197  A    between atoms: _494  and  _497
REMARK  198  A    between atoms: _497  and  _498
REMARK  199  A    between atoms: _501  and  _503
REMARK  200  A    between atoms: _503  and  _504
REMARK  201  A    between atoms: _503  and  _506
REMARK  202  A    between atoms: _506  and  _507
REMARK  203  A    between atoms: _507  and  _508
REMARK  204  A    between atoms: _508  and  _509
REMARK  205  A    between atoms: _509  and  _510
REMARK  206  A    between atoms: _514  and  _516
REMARK  207  A    between atoms: _516  and  _517
REMARK  208  A    between atoms: _516  and  _519
REMARK  209  A    between atoms: _519  and  _520
REMARK  210  A    between atoms: _525  and  _526
REMARK  211  A    between atoms: _528  and  _530
REMARK  212  A    between atoms: _530  and  _531
REMARK  213  A    between atoms: _530  and  _533
REMARK  214  A    between atoms: _533  and  _534
REMARK  215  A    between atoms: _539  and  _541
REMARK  216  A    between atoms: _541  and  _542
REMARK  217  A    between atoms: _544  and  _546
REMARK  218  A    between atoms: _546  and  _547
REMARK  219  A    between atoms: _546  and  _549
REMARK  220  A    between atoms: _549  and  _550
REMARK  221  A    between atoms: _553  and  _555
REMARK  222  A    between atoms: _555  and  _556
REMARK  223  A    between atoms: _555  and  _558
REMARK  224  A    between atoms: _561  and  _563
REMARK  225  A    between atoms: _563  and  _564
REMARK  226  A    between atoms: _563  and  _566
REMARK  227  A    between atoms: _566  and  _567
REMARK  228  A    between atoms: _570  and  _572
REMARK  229  A    between atoms: _572  and  _573
REMARK  230  A    between atoms: _572  and  _575
REMARK  231  A    between atoms: _575  and  _576
REMARK  232  A    between atoms: _582  and  _584
REMARK  233  A    between atoms: _584  and  _585
REMARK  234  A    between atoms: _584  and  _587
REMARK  235  A    between atoms: _587  and  _588
REMARK  236  A    between atoms: _588  and  _589
REMARK  237  A    between atoms: _594  and  _596
REMARK  238  A    between atoms: _596  and  _597
REMARK  239  A    between atoms: _600  and  _602
REMARK  240  A    between atoms: _602  and  _603
REMARK  241  A    between atoms: _606  and  _608
REMARK  242  A    between atoms: _608  and  _609
REMARK  243  A    between atoms: _608  and  _611
REMARK  244  A    between atoms: _611  and  _612
REMARK  245  A    between atoms: _615  and  _617
REMARK  246  A    between atoms: _617  and  _618
REMARK  247  A    between atoms: _617  and  _620
REMARK  248  A    between atoms: _620  and  _621
REMARK  249  A    between atoms: _626  and  _627
REMARK  250  A    between atoms: _629  and  _631
REMARK  251  A    between atoms: _631  and  _632
REMARK  252  A    between atoms: _635  and  _637
REMARK  253  A    between atoms: _637  and  _638
REMARK  254  A    between atoms: _642  and  _643
REMARK  255  A    between atoms: _648  and  _650
REMARK  256  A    between atoms: _650  and  _651
REMARK  257  A    between atoms: _650  and  _653
REMARK  258  A    between atoms: _653  and  _654
REMARK  259  A    between atoms: _660  and  _662
REMARK  260  A    between atoms: _662  and  _663
REMARK  261  A    between atoms: _662  and  _665
REMARK  262  A    between atoms: _665  and  _666
REMARK  263  A    between atoms: _669  and  _671
REMARK  264  A    between atoms: _671  and  _672
REMARK  265  A    between atoms: _671  and  _674
REMARK  266  A    between atoms: _674  and  _675
REMARK  267  A    between atoms: _681  and  _683
REMARK  268  A    between atoms: _683  and  _684
REMARK  269  A    between atoms: _683  and  _686
REMARK  270  A    between atoms: _686  and  _687
REMARK  271  A    between atoms: _692  and  _693
REMARK  272  A    between atoms: _695  and  _697
REMARK  273  A    between atoms: _697  and  _698
REMARK  274  A    between atoms: _697  and  _700
REMARK  275  A    between atoms: _700  and  _701
REMARK  276  A    between atoms: _706  and  _707
REMARK  277  A    between atoms: _709  and  _711
REMARK  278  A    between atoms: _711  and  _712
REMARK  279  A    between atoms: _711  and  _714
REMARK  280  A    between atoms: _714  and  _715
REMARK  281  A    between atoms: _715  and  _716
REMARK  282  A    between atoms: _716  and  _717
REMARK  283  A    between atoms: _717  and  _718
REMARK  284  A    between atoms: _722  and  _724
REMARK  285  A    between atoms: _724  and  _725
REMARK  286  A    between atoms: _724  and  _727
REMARK                            x       y       z     vdW  Elec       q    Type
REMARK                         _______ _______ _______ _____ _____    ______ ____
ROOT
ATOM      1  C   LEU A   2      17.930  -9.027  14.496  0.00  0.00    +0.241 C 
ATOM      2  O   LEU A   2      19.121  -8.696  14.545  0.00  0.00    -0.273 OA
ATOM      3  N   LYS A   3      17.496 -10.287  14.528  0.00  0.00    -0.298 N 
ATOM      4  H   LYS A   3      16.493 -10.462  14.316  0.00  0.00    +0.150 HD
ENDROOT
BRANCH   1   5
ATOM      5  CA  LEU A   2      16.865  -7.940  14.489  0.00  0.00    +0.149 C 
BRANCH   5   7
ATOM      6  C   ALA A   1      15.469  -7.364  12.607  0.00  0.00    +0.238 C 
ATOM      7  N   LEU A   2      15.739  -8.206  13.597  0.00  0.00    -0.297 N 
ATOM      8  H   LEU A   2      15.151  -9.052  13.737  0.00  0.00    +0.150 HD
ATOM      9  O   ALA A   1      16.203  -6.424  12.313  0.00  0.00    -0.274 OA
BRANCH   6  10
ATOM     10  CA  ALA A   1      14.109  -7.507  11.902  0.00  0.00    +0.145 C 
ATOM     11  CB  ALA A   1      13.059  -6.592  12.592  0.00  0.00    +0.028 C 
BRANCH  10  12
ATOM     12  N   ALA A   1      13.596  -8.870  11.789  0.00  0.00    -0.238 NA
ATOM     13  H   ALA A   1      13.250  -9.359  12.640  0.00  0.00    +0.142 HD
ENDBRANCH  10  12
ENDBRANCH   6  10
ENDBRANCH   5   7
BRANCH   5  14
ATOM     14  CB  LEU A   2      16.407  -7.670  15.924  0.00  0.00    +0.029 C 
BRANCH  14  15
ATOM     15  CG  LEU A   2      15.680  -6.318  16.062  0.00  0.00    +0.002 C 
ATOM     16  CD2 LEU A   2      14.926  -6.242  17.388  0.00  0.00    +0.000 C 
ATOM     17  CD1 LEU A   2      16.651  -5.168  15.885  0.00  0.00    +0.000 C 
ENDBRANCH  14  15
ENDBRANCH   5  14
ENDBRANCH   1   5
BRANCH   3  18
ATOM     18  CA  LYS A   3      18.346 -11.447  14.845  0.00  0.00    +0.137 C 
BRANCH  18  19
ATOM     19  C   LYS A   3      19.654 -11.502  14.061  0.00  0.00    +0.227 C 
ATOM     20  O   LYS A   3      20.736 -11.777  14.603  0.00  0.00    -0.286 OA
ENDBRANCH  18  19
BRANCH  18  21
ATOM     21  CB  LYS A   3      17.551 -12.760  14.710  0.00  0.00    +0.028 C 
BRANCH  21  22
ATOM     22  CG  LYS A   3      18.299 -14.002  15.175  0.00  0.00    -0.000 C 
BRANCH  22  23
ATOM     23  CD  LYS A   3      17.425 -15.260  15.117  0.00  0.00    -0.024 C 
BRANCH  23  24
ATOM     24  CE  LYS A   3      18.292 -16.529  15.290  0.00  0.00    -0.086 C 
BRANCH  24  25
ATOM     25  NZ  LYS A   3      17.648 -17.770  14.752  0.00  0.00    +0.380 N 
ATOM     26  HZ1 LYS A   3      16.749 -17.936  15.248  0.00  0.00    -0.089 HD
ATOM     27  HZ2 LYS A   3      18.282 -18.581  14.901  0.00  0.00    -0.089 HD
ATOM     28  HZ3 LYS A   3      17.467 -17.652  13.735  0.00  0.00    -0.089 HD
ENDBRANCH  24  25
ENDBRANCH  23  24
ENDBRANCH  22  23
ENDBRANCH  21  22
ENDBRANCH  18  21
ENDBRANCH   3  18
TORSDOF 13
REMARK  Name = ../refined-set-2016/2euk/2euk_pocket.pdb
REMARK  286 active torsions:
REMARK  status: ('A' for Active; 'I' for Inactive)
REMARK    1  A    between atoms: _1  and  _5
REMARK    2  A    between atoms: _5  and  _6
REMARK    3  A    between atoms: _5  and  _8
REMARK    4  A    between atoms: _8  and  _9
REMARK    5  A    between atoms: _12  and  _14
REMARK    6  A    between atoms: _14  and  _15
REMARK    7  A    between atoms: _14  and  _17
REMARK    8  A    between atoms: _17  and  _18
REMARK    9  A    between atoms: _23  and  _25
REMARK   10  A    between atoms: _25  and  _26
REMARK   11  A    between atoms: _25  and  _28
REMARK   12  A    between atoms: _28  and  _29
REMARK   13  A    between atoms: _33  and  _34
REMARK   14  A    between atoms: _40  and  _41
REMARK   15  A    between atoms: _46  and  _48
REMARK   16  A    between atoms: _48  and  _49
REMARK   17  A    between atoms: _48  and  _51
REMARK   18  A    between atoms: _51  and  _52
REMARK   19  A    between atoms: _58  and  _60
REMARK   20  A    between atoms: _60  and  _61
REMARK   21  A    between atoms: _60  and  _63
REMARK   22  A    between atoms: _63  and  _64
REMARK   23  A    between atoms: _70  and  _72
REMARK   24  A    between atoms: _72  and  _73
REMARK   25  A    between atoms: _72  and  _75
REMARK   26  A    between atoms: _75  and  _76
REMARK   27  A    between atoms: _79  and  _81
REMARK   28  A    between atoms: _81  and  _82
REMARK   29  A    between atoms: _81  and  _84
REMARK   30  A    between atoms: _86  and  _88
REMARK   31  A    between atoms: _88  and  _89
REMARK   32  A    between atoms: _88  and  _91
REMARK   33  A    between atoms: _91  and  _92
REMARK   34  A    between atoms: _95  and  _97
REMARK   35  A    between atoms: _97  and  _98
REMARK   36  A    between atoms: _97  and  _100
REMARK   37  A    between atoms: _100  and  _101
REMARK   38  A    between atoms: _103  and  _105
REMARK   39  A    between atoms: _105  and  _106
REMARK   40  A    between atoms: _105  and  _108
REMARK   41  A    between atoms: _111  and  _113
REMARK   42  A    between atoms: _113  and  _114
REMARK   43  A    between atoms: _113  and  _116
REMARK   44  A    between atoms: _116  and  _117
REMARK   45  A    between atoms: _123  and  _125
REMARK   46  A    between atoms: _125  and  _126
REMARK   47  A    between atoms: _125  and  _128
REMARK   48  A    between atoms: _128  and  _129
REMARK   49  A    between atoms: _133  and  _134
REMARK   50  A    between atoms: _139  and  _141
REMARK   51  A    between atoms: _141  and  _142
REMARK   52  A    between atoms: _141  and  _144
REMARK   53  A    between atoms: _144  and  _145
REMARK   54  A    between atoms: _148  and  _150
REMARK   55  A    between atoms: _150  and  _151
REMARK   56  A    between atoms: _150  and  _153
REMARK   57  A    between atoms: _153  and  _154
REMARK   58  A    between atoms: _154  and  _155
REMARK   59  A    between atoms: _155  and  _156
REMARK   60  A    between atoms: _156  and  _157
REMARK   61  A    between atoms: _161  and  _163
REMARK   62  A    between atoms: _163  and  _164
REMARK   63  A    between atoms: _167  and  _169
REMARK   64  A    between atoms: _169  and  _170
REMARK   65  A    between atoms: _169  and  _172
REMARK   66  A    between atoms: _172  and  _173
REMARK   67  A    between atoms: _176  and  _178
REMARK   68  A    between atoms: _178  and  _179
REMARK   69  A    between atoms: _178  and  _181
REMARK   70  A    between atoms: _181  and  _182
REMARK   71  A    between atoms: _185  and  _187
REMARK   72  A    between atoms: _187  and  _188
REMARK   73  A    between atoms: _190  and  _192
REMARK   74  A    between atoms: _192  and  _193
REMARK   75  A    between atoms: _192  and  _195
REMARK   76  A    between atoms: _195  and  _196
REMARK   77  A    between atoms: _201  and  _203
REMARK   78  A    between atoms: _203  and  _204
REMARK   79  A    between atoms: _203  and  _206
REMARK   80  A    between atoms: _206  and  _207
REMARK   81  A    between atoms: _210  and  _212
REMARK   82  A    between atoms: _212  and  _213
REMARK   83  A    between atoms: _212  and  _215
REMARK   84  A    between atoms: _215  and  _216
REMARK   85  A    between atoms: _216  and  _217
REMARK   86  A    between atoms: _217  and  _218
REMARK   87  A    between atoms: _218  and  _219
REMARK   88  A    between atoms: _223  and  _225
REMARK   89  A    between atoms: _225  and  _226
REMARK   90  A    between atoms: _225  and  _228
REMARK   91  A    between atoms: _228  and  _229
REMARK   92  A    between atoms: _229  and  _230
REMARK   93  A    between atoms: _230  and  _231
REMARK   94  A    between atoms: _231  and  _232
REMARK   95  A    between atoms: _236  and  _238
REMARK   96  A    between atoms: _238  and  _239
REMARK   97  A    between atoms: _241  and  _243
REMARK   98  A    between atoms: _243  and  _244
REMARK   99  A    between atoms: _243  and  _246
REMARK  100  A    between atoms: _246  and  _247
REMARK  101  A    between atoms: _250  and  _252
REMARK  102  A    between atoms: _252  and  _253
REMARK  103  A    between atoms: _256  and  _258
REMARK  104  A    between atoms: _258  and  _259
REMARK  105  A    between atoms: _258  and  _261
REMARK  106  A    between atoms: _261  and  _262
REMARK  107  A    between atoms: _265  and  _267
REMARK  108  A    between atoms: _267  and  _268
REMARK  109  A    between atoms: _267  and  _270
REMARK  110  A    between atoms: _270  and  _271
REMARK  111  A    between atoms: _271  and  _272
REMARK  112  A    between atoms: _274  and  _276
REMARK  113  A    between atoms: _276  and  _277
REMARK  114  A    between atoms: _276  and  _279
REMARK  115  A    between atoms: _279  and  _280
REMARK  116  A    between atoms: _290  and  _292
REMARK  117  A    between atoms: _292  and  _293
REMARK  118  A    between atoms: _292  and  _295
REMARK  119  A    between atoms: _295  and  _296
REMARK  120  A    between atoms: _299  and  _301
REMARK  121  A    between atoms: _301  and  _302
REMARK  122  A    between atoms: _301  and  _304
REMARK  123  A    between atoms: _304  and  _305
REMARK  124  A    between atoms: _305  and  _306
REMARK  125  A    between atoms: _306  and  _307
REMARK  126  A    between atoms: _307  and  _308
REMARK  127  A    between atoms: _312  and  _314
REMARK  128  A    between atoms: _314  and  _315
REMARK  129  A    between atoms: _314  and  _317
REMARK  130  A    between atoms: _317  and  _318
REMARK  131  A    between atoms: _318  and  _319
REMARK  132  A    between atoms: _319  and  _320
REMARK  133  A    between atoms: _329  and  _331
REMARK  134  A    between atoms: _331  and  _332
REMARK  135  A    between atoms: _334  and  _336
REMARK  136  A    between atoms: _336  and  _337
REMARK  137  A    between atoms: _336  and  _339
REMARK  138  A    between atoms: _339  and  _340
REMARK  139  A    between atoms: _343  and  _345
REMARK  140  A    between atoms: _345  and  _346
REMARK  141  A    between atoms: _345  and  _348
REMARK  142  A    between atoms: _348  and  _349
REMARK  143  A    between atoms: _349  and  _350
REMARK  144  A    between atoms: _350  and  _351
REMARK  145  A    between atoms: _360  and  _362
REMARK  146  A    between atoms: _362  and  _363
REMARK  147  A    between atoms: _362  and  _365
REMARK  148  A    between atoms: _365  and  _366
REMARK  149  A    between atoms: _372  and  _374
REMARK  150  A    between atoms: _374  and  _375
REMARK  151  A    between atoms: _374  and  _377
REMARK  152  A    between atoms: _377  and  _378
REMARK  153  A    between atoms: _381  and  _383
REMARK  154  A    between atoms: _383  and  _384
REMARK  155  A    between atoms: _383  and  _386
REMARK  156  A    between atoms: _386  and  _387
REMARK  157  A    between atoms: _387  and  _388
REMARK  158  A    between atoms: _393  and  _395
REMARK  159  A    between atoms: _395  and  _396
REMARK  160  A    between atoms: _395  and  _398
REMARK  161  A    between atoms: _398  and  _399
REMARK  162  A    between atoms: _405  and  _407
REMARK  163  A    between atoms: _407  and  _408
REMARK  164  A    between atoms: _407  and  _410
REMARK  165  A    between atoms: _410  and  _411
REMARK  166  A    between atoms: _414  and  _416
REMARK  167  A    between atoms: _416  and  _417
REMARK  168  A    between atoms: _416  and  _419
REMARK  169  A    between atoms: _419  and  _420
REMARK  170  A    between atoms: _423  and  _425
REMARK  171  A    between atoms: _425  and  _426
REMARK  172  A    between atoms: _425  and  _428
REMARK  173  A    between atoms: _428  and  _429
REMARK  174  A    between atoms: _429  and  _430
REMARK  175  A    between atoms: _430  and  _431
REMARK  176  A    between atoms: _440  and  _442
REMARK  177  A    between atoms: _442  and  _443
REMARK  178  A    between atoms: _442  and  _445
REMARK  179  A    between atoms: _445  and  _446
REMARK  180  A    between atoms: _451  and  _453
REMARK  181  A    between atoms: _453  and  _454
REMARK  182  A    between atoms: _457  and  _459
REMARK  183  A    between atoms: _459  and  _460
REMARK  184  A    between atoms: _459  and  _462
REMARK  185  A    between atoms: _462  and  _463
REMARK  186  A    between atoms: _466  and  _468
REMARK  187  A    between atoms: _468  and  _469
REMARK  188  A    between atoms: _472  and  _474
REMARK  189  A    between atoms: _474  and  _475
REMARK  190  A    between atoms: _474  and  _477
REMARK  191  A    between atoms: _477  and  _478
REMARK  192  A    between atoms: _483  and  _484
REMARK  193  A    between atoms: _486  and  _488
REMARK  194  A    between atoms: _488  and  _489
REMARK  195  A    between atoms: _492  and  _494
REMARK  196  A    between atoms: _494  and  _495
REMARK  197  A    between atoms: _494  and  _497
REMARK  198  A    between atoms: _497  and  _498
REMARK  199  A    between atoms: _501  and  _503
REMARK  200  A    between atoms: _503  and  _504
REMARK  201  A    between atoms: _503  and  _506
REMARK  202  A    between atoms: _506  and  _507
REMARK  203  A    between atoms: _507  and  _508
REMARK  204  A    between atoms: _508  and  _509
REMARK  205  A    between atoms: _509  and  _510
REMARK  206  A    between atoms: _514  and  _516
REMARK  207  A    between atoms: _516  and  _517
REMARK  208  A    between atoms: _516  and  _519
REMARK  209  A    between atoms: _519  and  _520
REMARK  210  A    between atoms: _525  and  _526
REMARK  211  A    between atoms: _528  and  _530
REMARK  212  A    between atoms: _530  and  _531
REMARK  213  A    between atoms: _530  and  _533
REMARK  214  A    between atoms: _533  and  _534
REMARK  215  A    between atoms: _539  and  _541
REMARK  216  A    between atoms: _541  and  _542
REMARK  217  A    between atoms: _544  and  _546
REMARK  218  A    between atoms: _546  and  _547
REMARK  219  A    between atoms: _546  and  _549
REMARK  220  A    between atoms: _549  and  _550
REMARK  221  A    between atoms: _553  and  _555
REMARK  222  A    between atoms: _555  and  _556
REMARK  223  A    between atoms: _555  and  _558
REMARK  224  A    between atoms: _561  and  _563
REMARK  225  A    between atoms: _563  and  _564
REMARK  226  A    between atoms: _563  and  _566
REMARK  227  A    between atoms: _566  and  _567
REMARK  228  A    between atoms: _570  and  _572
REMARK  229  A    between atoms: _572  and  _573
REMARK  230  A    between atoms: _572  and  _575
REMARK  231  A    between atoms: _575  and  _576
REMARK  232  A    between atoms: _582  and  _584
REMARK  233  A    between atoms: _584  and  _585
REMARK  234  A    between atoms: _584  and  _587
REMARK  235  A    between atoms: _587  and  _588
REMARK  236  A    between atoms: _588  and  _589
REMARK  237  A    between atoms: _594  and  _596
REMARK  238  A    between atoms: _596  and  _597
REMARK  239  A    between atoms: _600  and  _602
REMARK  240  A    between atoms: _602  and  _603
REMARK  241  A    between atoms: _606  and  _608
REMARK  242  A    between atoms: _608  and  _609
REMARK  243  A    between atoms: _608  and  _611
REMARK  244  A    between atoms: _611  and  _612
REMARK  245  A    between atoms: _615  and  _617
REMARK  246  A    between atoms: _617  and  _618
REMARK  247  A    between atoms: _617  and  _620
REMARK  248  A    between atoms: _620  and  _621
REMARK  249  A    between atoms: _626  and  _627
REMARK  250  A    between atoms: _629  and  _631
REMARK  251  A    between atoms: _631  and  _632
REMARK  252  A    between atoms: _635  and  _637
REMARK  253  A    between atoms: _637  and  _638
REMARK  254  A    between atoms: _642  and  _643
REMARK  255  A    between atoms: _648  and  _650
REMARK  256  A    between atoms: _650  and  _651
REMARK  257  A    between atoms: _650  and  _653
REMARK  258  A    between atoms: _653  and  _654
REMARK  259  A    between atoms: _660  and  _662
REMARK  260  A    between atoms: _662  and  _663
REMARK  261  A    between atoms: _662  and  _665
REMARK  262  A    between atoms: _665  and  _666
REMARK  263  A    between atoms: _669  and  _671
REMARK  264  A    between atoms: _671  and  _672
REMARK  265  A    between atoms: _671  and  _674
REMARK  266  A    between atoms: _674  and  _675
REMARK  267  A    between atoms: _681  and  _683
REMARK  268  A    between atoms: _683  and  _684
REMARK  269  A    between atoms: _683  and  _686
REMARK  270  A    between atoms: _686  and  _687
REMARK  271  A    between atoms: _692  and  _693
REMARK  272  A    between atoms: _695  and  _697
REMARK  273  A    between atoms: _697  and  _698
REMARK  274  A    between atoms: _697  and  _700
REMARK  275  A    between atoms: _700  and  _701
REMARK  276  A    between atoms: _706  and  _707
REMARK  277  A    between atoms: _709  and  _711
REMARK  278  A    between atoms: _711  and  _712
REMARK  279  A    between atoms: _711  and  _714
REMARK  280  A    between atoms: _714  and  _715
REMARK  281  A    between atoms: _715  and  _716
REMARK  282  A    between atoms: _716  and  _717
REMARK  283  A    between atoms: _717  and  _718
REMARK  284  A    between atoms: _722  and  _724
REMARK  285  A    between atoms: _724  and  _725
REMARK  286  A    between atoms: _724  and  _727
REMARK                            x       y       z     vdW  Elec       q    Type
REMARK                         _______ _______ _______ _____ _____    ______ ____
ROOT
ATOM      1  C   TYR A   1      22.980  -8.381  15.069  0.00  0.00    +0.239 C 
ATOM      2  N   HIS A   2      22.561  -9.483  15.679  0.00  0.00    -0.297 N 
ATOM      3  H   HIS A   2      21.937 -10.131  15.157  0.00  0.00    +0.150 HD
ATOM      4  O   TYR A   1      23.629  -7.481  15.619  0.00  0.00    -0.274 OA
ENDROOT
BRANCH   1   5
ATOM      5  CA  TYR A   1      22.552  -8.238  13.623  0.00  0.00    +0.149 C 
BRANCH   5   6
ATOM      6  N   TYR A   1      21.616  -9.300  13.244  0.00  0.00    -0.238 NA
ATOM      7  H   TYR A   1      20.654  -9.280  13.638  0.00  0.00    +0.142 HD
ENDBRANCH   5   6
BRANCH   5   8
ATOM      8  CB  TYR A   1      21.905  -6.859  13.441  0.00  0.00    +0.053 C 
BRANCH   8   9
ATOM      9  CG  TYR A   1      21.330  -6.724  12.055  0.00  0.00    -0.020 A 
ATOM     10  CD2 TYR A   1      19.953  -6.810  11.846  0.00  0.00    -0.001 A 
ATOM     11  CE2 TYR A   1      19.414  -6.736  10.579  0.00  0.00    +0.036 A 
ATOM     12  CZ  TYR A   1      20.274  -6.633   9.508  0.00  0.00    +0.134 A 
ATOM     13  CE1 TYR A   1      21.648  -6.550   9.679  0.00  0.00    +0.036 A 
ATOM     14  CD1 TYR A   1      22.175  -6.624  10.950  0.00  0.00    -0.001 A 
BRANCH  12  15
ATOM     15  OH  TYR A   1      19.781  -6.537   8.230  0.00  0.00    -0.506 OA
ATOM     16  HH  TYR A   1      20.534  -6.471   7.591  0.00  0.00    +0.292 HD
ENDBRANCH  12  15
ENDBRANCH   8   9
ENDBRANCH   5   8
ENDBRANCH   1   5
BRANCH   2  17
ATOM     17  CA  HIS A   2      22.933  -9.826  17.041  0.00  0.00    +0.155 C 
BRANCH  17  18
ATOM     18  C   HIS A   2      23.849 -11.060  17.111  0.00  0.00    +0.241 C 
ATOM     19  N   GLY A   3      24.916 -10.931  17.892  0.00  0.00    -0.296 N 
ATOM     20  H   GLY A   3      25.182  -9.987  18.238  0.00  0.00    +0.150 HD
ATOM     21  O   HIS A   2      23.562 -12.110  16.511  0.00  0.00    -0.273 OA
BRANCH  19  22
ATOM     22  CA  GLY A   3      25.724 -12.087  18.275  0.00  0.00    +0.163 C 
BRANCH  22  23
ATOM     23  C   GLY A   3      25.000 -13.005  19.234  0.00  0.00    +0.229 C 
ATOM     24  O   GLY A   3      23.868 -12.717  19.672  0.00  0.00    -0.286 OA
ENDBRANCH  22  23
ENDBRANCH  19  22
ENDBRANCH  17  18
BRANCH  17  25
ATOM     25  CB  HIS A   2      21.682 -10.091  17.886  0.00  0.00    +0.076 C 
BRANCH  25  26
ATOM     26  CG  HIS A   2      20.823  -8.880  18.081  0.00  0.00    +0.082 A 
ATOM     27  ND1 HIS A   2      19.586  -8.935  18.688  0.00  0.00    -0.227 NA
ATOM     28  CE1 HIS A   2      19.076  -7.714  18.735  0.00  0.00    +0.199 A 
ATOM     29  NE2 HIS A   2      19.946  -6.871  18.204  0.00  0.00    -0.221 NA
ATOM     30  CD2 HIS A   2      21.049  -7.576  17.781  0.00  0.00    +0.115 A 
ENDBRANCH  25  26
ENDBRANCH  17  25
ENDBRANCH   2  17
TORSDOF 11
REMARK  Name = ../refined-set-2016/2euk/2euk_pocket.pdb
REMARK  286 active torsions:
REMARK  status: ('A' for Active; 'I' for Inactive)
REMARK    1  A    between atoms: _1  and  _5
REMARK    2  A    between atoms: _5  and  _6
REMARK    3  A    between atoms: _5  and  _8
REMARK    4  A    between atoms: _8  and  _9
REMARK    5  A    between atoms: _12  and  _14
REMARK    6  A    between atoms: _14  and  _15
REMARK    7  A    between atoms: _14  and  _17
REMARK    8  A    between atoms: _17  and  _18
REMARK    9  A    between atoms: _23  and  _25
REMARK   10  A    between atoms: _25  and  _26
REMARK   11  A    between atoms: _25  and  _28
REMARK   12  A    between atoms: _28  and  _29
REMARK   13  A    between atoms: _33  and  _34
REMARK   14  A    between atoms: _40  and  _41
REMARK   15  A    between atoms: _46  and  _48
REMARK   16  A    between atoms: _48  and  _49
REMARK   17  A    between atoms: _48  and  _51
REMARK   18  A    between atoms: _51  and  _52
REMARK   19  A    between atoms: _58  and  _60
REMARK   20  A    between atoms: _60  and  _61
REMARK   21  A    between atoms: _60  and  _63
REMARK   22  A    between atoms: _63  and  _64
REMARK   23  A    between atoms: _70  and  _72
REMARK   24  A    between atoms: _72  and  _73
REMARK   25  A    between atoms: _72  and  _75
REMARK   26  A    between atoms: _75  and  _76
REMARK   27  A    between atoms: _79  and  _81
REMARK   28  A    between atoms: _81  and  _82
REMARK   29  A    between atoms: _81  and  _84
REMARK   30  A    between atoms: _86  and  _88
REMARK   31  A    between atoms: _88  and  _89
REMARK   32  A    between atoms: _88  and  _91
REMARK   33  A    between atoms: _91  and  _92
REMARK   34  A    between atoms: _95  and  _97
REMARK   35  A    between atoms: _97  and  _98
REMARK   36  A    between atoms: _97  and  _100
REMARK   37  A    between atoms: _100  and  _101
REMARK   38  A    between atoms: _103  and  _105
REMARK   39  A    between atoms: _105  and  _106
REMARK   40  A    between atoms: _105  and  _108
REMARK   41  A    between atoms: _111  and  _113
REMARK   42  A    between atoms: _113  and  _114
REMARK   43  A    between atoms: _113  and  _116
REMARK   44  A    between atoms: _116  and  _117
REMARK   45  A    between atoms: _123  and  _125
REMARK   46  A    between atoms: _125  and  _126
REMARK   47  A    between atoms: _125  and  _128
REMARK   48  A    between atoms: _128  and  _129
REMARK   49  A    between atoms: _133  and  _134
REMARK   50  A    between atoms: _139  and  _141
REMARK   51  A    between atoms: _141  and  _142
REMARK   52  A    between atoms: _141  and  _144
REMARK   53  A    between atoms: _144  and  _145
REMARK   54  A    between atoms: _148  and  _150
REMARK   55  A    between atoms: _150  and  _151
REMARK   56  A    between atoms: _150  and  _153
REMARK   57  A    between atoms: _153  and  _154
REMARK   58  A    between atoms: _154  and  _155
REMARK   59  A    between atoms: _155  and  _156
REMARK   60  A    between atoms: _156  and  _157
REMARK   61  A    between atoms: _161  and  _163
REMARK   62  A    between atoms: _163  and  _164
REMARK   63  A    between atoms: _167  and  _169
REMARK   64  A    between atoms: _169  and  _170
REMARK   65  A    between atoms: _169  and  _172
REMARK   66  A    between atoms: _172  and  _173
REMARK   67  A    between atoms: _176  and  _178
REMARK   68  A    between atoms: _178  and  _179
REMARK   69  A    between atoms: _178  and  _181
REMARK   70  A    between atoms: _181  and  _182
REMARK   71  A    between atoms: _185  and  _187
REMARK   72  A    between atoms: _187  and  _188
REMARK   73  A    between atoms: _190  and  _192
REMARK   74  A    between atoms: _192  and  _193
REMARK   75  A    between atoms: _192  and  _195
REMARK   76  A    between atoms: _195  and  _196
REMARK   77  A    between atoms: _201  and  _203
REMARK   78  A    between atoms: _203  and  _204
REMARK   79  A    between atoms: _203  and  _206
REMARK   80  A    between atoms: _206  and  _207
REMARK   81  A    between atoms: _210  and  _212
REMARK   82  A    between atoms: _212  and  _213
REMARK   83  A    between atoms: _212  and  _215
REMARK   84  A    between atoms: _215  and  _216
REMARK   85  A    between atoms: _216  and  _217
REMARK   86  A    between atoms: _217  and  _218
REMARK   87  A    between atoms: _218  and  _219
REMARK   88  A    between atoms: _223  and  _225
REMARK   89  A    between atoms: _225  and  _226
REMARK   90  A    between atoms: _225  and  _228
REMARK   91  A    between atoms: _228  and  _229
REMARK   92  A    between atoms: _229  and  _230
REMARK   93  A    between atoms: _230  and  _231
REMARK   94  A    between atoms: _231  and  _232
REMARK   95  A    between atoms: _236  and  _238
REMARK   96  A    between atoms: _238  and  _239
REMARK   97  A    between atoms: _241  and  _243
REMARK   98  A    between atoms: _243  and  _244
REMARK   99  A    between atoms: _243  and  _246
REMARK  100  A    between atoms: _246  and  _247
REMARK  101  A    between atoms: _250  and  _252
REMARK  102  A    between atoms: _252  and  _253
REMARK  103  A    between atoms: _256  and  _258
REMARK  104  A    between atoms: _258  and  _259
REMARK  105  A    between atoms: _258  and  _261
REMARK  106  A    between atoms: _261  and  _262
REMARK  107  A    between atoms: _265  and  _267
REMARK  108  A    between atoms: _267  and  _268
REMARK  109  A    between atoms: _267  and  _270
REMARK  110  A    between atoms: _270  and  _271
REMARK  111  A    between atoms: _271  and  _272
REMARK  112  A    between atoms: _274  and  _276
REMARK  113  A    between atoms: _276  and  _277
REMARK  114  A    between atoms: _276  and  _279
REMARK  115  A    between atoms: _279  and  _280
REMARK  116  A    between atoms: _290  and  _292
REMARK  117  A    between atoms: _292  and  _293
REMARK  118  A    between atoms: _292  and  _295
REMARK  119  A    between atoms: _295  and  _296
REMARK  120  A    between atoms: _299  and  _301
REMARK  121  A    between atoms: _301  and  _302
REMARK  122  A    between atoms: _301  and  _304
REMARK  123  A    between atoms: _304  and  _305
REMARK  124  A    between atoms: _305  and  _306
REMARK  125  A    between atoms: _306  and  _307
REMARK  126  A    between atoms: _307  and  _308
REMARK  127  A    between atoms: _312  and  _314
REMARK  128  A    between atoms: _314  and  _315
REMARK  129  A    between atoms: _314  and  _317
REMARK  130  A    between atoms: _317  and  _318
REMARK  131  A    between atoms: _318  and  _319
REMARK  132  A    between atoms: _319  and  _320
REMARK  133  A    between atoms: _329  and  _331
REMARK  134  A    between atoms: _331  and  _332
REMARK  135  A    between atoms: _334  and  _336
REMARK  136  A    between atoms: _336  and  _337
REMARK  137  A    between atoms: _336  and  _339
REMARK  138  A    between atoms: _339  and  _340
REMARK  139  A    between atoms: _343  and  _345
REMARK  140  A    between atoms: _345  and  _346
REMARK  141  A    between atoms: _345  and  _348
REMARK  142  A    between atoms: _348  and  _349
REMARK  143  A    between atoms: _349  and  _350
REMARK  144  A    between atoms: _350  and  _351
REMARK  145  A    between atoms: _360  and  _362
REMARK  146  A    between atoms: _362  and  _363
REMARK  147  A    between atoms: _362  and  _365
REMARK  148  A    between atoms: _365  and  _366
REMARK  149  A    between atoms: _372  and  _374
REMARK  150  A    between atoms: _374  and  _375
REMARK  151  A    between atoms: _374  and  _377
REMARK  152  A    between atoms: _377  and  _378
REMARK  153  A    between atoms: _381  and  _383
REMARK  154  A    between atoms: _383  and  _384
REMARK  155  A    between atoms: _383  and  _386
REMARK  156  A    between atoms: _386  and  _387
REMARK  157  A    between atoms: _387  and  _388
REMARK  158  A    between atoms: _393  and  _395
REMARK  159  A    between atoms: _395  and  _396
REMARK  160  A    between atoms: _395  and  _398
REMARK  161  A    between atoms: _398  and  _399
REMARK  162  A    between atoms: _405  and  _407
REMARK  163  A    between atoms: _407  and  _408
REMARK  164  A    between atoms: _407  and  _410
REMARK  165  A    between atoms: _410  and  _411
REMARK  166  A    between atoms: _414  and  _416
REMARK  167  A    between atoms: _416  and  _417
REMARK  168  A    between atoms: _416  and  _419
REMARK  169  A    between atoms: _419  and  _420
REMARK  170  A    between atoms: _423  and  _425
REMARK  171  A    between atoms: _425  and  _426
REMARK  172  A    between atoms: _425  and  _428
REMARK  173  A    between atoms: _428  and  _429
REMARK  174  A    between atoms: _429  and  _430
REMARK  175  A    between atoms: _430  and  _431
REMARK  176  A    between atoms: _440  and  _442
REMARK  177  A    between atoms: _442  and  _443
REMARK  178  A    between atoms: _442  and  _445
REMARK  179  A    between atoms: _445  and  _446
REMARK  180  A    between atoms: _451  and  _453
REMARK  181  A    between atoms: _453  and  _454
REMARK  182  A    between atoms: _457  and  _459
REMARK  183  A    between atoms: _459  and  _460
REMARK  184  A    between atoms: _459  and  _462
REMARK  185  A    between atoms: _462  and  _463
REMARK  186  A    between atoms: _466  and  _468
REMARK  187  A    between atoms: _468  and  _469
REMARK  188  A    between atoms: _472  and  _474
REMARK  189  A    between atoms: _474  and  _475
REMARK  190  A    between atoms: _474  and  _477
REMARK  191  A    between atoms: _477  and  _478
REMARK  192  A    between atoms: _483  and  _484
REMARK  193  A    between atoms: _486  and  _488
REMARK  194  A    between atoms: _488  and  _489
REMARK  195  A    between atoms: _492  and  _494
REMARK  196  A    between atoms: _494  and  _495
REMARK  197  A    between atoms: _494  and  _497
REMARK  198  A    between atoms: _497  and  _498
REMARK  199  A    between atoms: _501  and  _503
REMARK  200  A    between atoms: _503  and  _504
REMARK  201  A    between atoms: _503  and  _506
REMARK  202  A    between atoms: _506  and  _507
REMARK  203  A    between atoms: _507  and  _508
REMARK  204  A    between atoms: _508  and  _509
REMARK  205  A    between atoms: _509  and  _510
REMARK  206  A    between atoms: _514  and  _516
REMARK  207  A    between atoms: _516  and  _517
REMARK  208  A    between atoms: _516  and  _519
REMARK  209  A    between atoms: _519  and  _520
REMARK  210  A    between atoms: _525  and  _526
REMARK  211  A    between atoms: _528  and  _530
REMARK  212  A    between atoms: _530  and  _531
REMARK  213  A    between atoms: _530  and  _533
REMARK  214  A    between atoms: _533  and  _534
REMARK  215  A    between atoms: _539  and  _541
REMARK  216  A    between atoms: _541  and  _542
REMARK  217  A    between atoms: _544  and  _546
REMARK  218  A    between atoms: _546  and  _547
REMARK  219  A    between atoms: _546  and  _549
REMARK  220  A    between atoms: _549  and  _550
REMARK  221  A    between atoms: _553  and  _555
REMARK  222  A    between atoms: _555  and  _556
REMARK  223  A    between atoms: _555  and  _558
REMARK  224  A    between atoms: _561  and  _563
REMARK  225  A    between atoms: _563  and  _564
REMARK  226  A    between atoms: _563  and  _566
REMARK  227  A    between atoms: _566  and  _567
REMARK  228  A    between atoms: _570  and  _572
REMARK  229  A    between atoms: _572  and  _573
REMARK  230  A    between atoms: _572  and  _575
REMARK  231  A    between atoms: _575  and  _576
REMARK  232  A    between atoms: _582  and  _584
REMARK  233  A    between atoms: _584  and  _585
REMARK  234  A    between atoms: _584  and  _587
REMARK  235  A    between atoms: _587  and  _588
REMARK  236  A    between atoms: _588  and  _589
REMARK  237  A    between atoms: _594  and  _596
REMARK  238  A    between atoms: _596  and  _597
REMARK  239  A    between atoms: _600  and  _602
REMARK  240  A    between atoms: _602  and  _603
REMARK  241  A    between atoms: _606  and  _608
REMARK  242  A    between atoms: _608  and  _609
REMARK  243  A    between atoms: _608  and  _611
REMARK  244  A    between atoms: _611  and  _612
REMARK  245  A    between atoms: _615  and  _617
REMARK  246  A    between atoms: _617  and  _618
REMARK  247  A    between atoms: _617  and  _620
REMARK  248  A    between atoms: _620  and  _621
REMARK  249  A    between atoms: _626  and  _627
REMARK  250  A    between atoms: _629  and  _631
REMARK  251  A    between atoms: _631  and  _632
REMARK  252  A    between atoms: _635  and  _637
REMARK  253  A    between atoms: _637  and  _638
REMARK  254  A    between atoms: _642  and  _643
REMARK  255  A    between atoms: _648  and  _650
REMARK  256  A    between atoms: _650  and  _651
REMARK  257  A    between atoms: _650  and  _653
REMARK  258  A    between atoms: _653  and  _654
REMARK  259  A    between atoms: _660  and  _662
REMARK  260  A    between atoms: _662  and  _663
REMARK  261  A    between atoms: _662  and  _665
REMARK  262  A    between atoms: _665  and  _666
REMARK  263  A    between atoms: _669  and  _671
REMARK  264  A    between atoms: _671  and  _672
REMARK  265  A    between atoms: _671  and  _674
REMARK  266  A    between atoms: _674  and  _675
REMARK  267  A    between atoms: _681  and  _683
REMARK  268  A    between atoms: _683  and  _684
REMARK  269  A    between atoms: _683  and  _686
REMARK  270  A    between atoms: _686  and  _687
REMARK  271  A    between atoms: _692  and  _693
REMARK  272  A    between atoms: _695  and  _697
REMARK  273  A    between atoms: _697  and  _698
REMARK  274  A    between atoms: _697  and  _700
REMARK  275  A    between atoms: _700  and  _701
REMARK  276  A    between atoms: _706  and  _707
REMARK  277  A    between atoms: _709  and  _711
REMARK  278  A    between atoms: _711  and  _712
REMARK  279  A    between atoms: _711  and  _714
REMARK  280  A    between atoms: _714  and  _715
REMARK  281  A    between atoms: _715  and  _716
REMARK  282  A    between atoms: _716  and  _717
REMARK  283  A    between atoms: _717  and  _718
REMARK  284  A    between atoms: _722  and  _724
REMARK  285  A    between atoms: _724  and  _725
REMARK  286  A    between atoms: _724  and  _727
REMARK                            x       y       z     vdW  Elec       q    Type
REMARK                         _______ _______ _______ _____ _____    ______ ____
ROOT
ATOM      1  C   ILE A   1      23.599 -12.525  23.737  0.00  0.00    +0.238 C 
ATOM      2  O   ILE A   1      22.732 -12.787  24.559  0.00  0.00    -0.274 OA
ATOM      3  N   VAL A   2      23.465 -11.562  22.827  0.00  0.00    -0.298 N 
ATOM      4  H   VAL A   2      24.234 -11.395  22.148  0.00  0.00    +0.150 HD
ENDROOT
BRANCH   1   5
ATOM      5  CA  ILE A   1      24.925 -13.291  23.739  0.00  0.00    +0.145 C 
BRANCH   5   6
ATOM      6  N   ILE A   1      25.313 -13.758  22.390  0.00  0.00    -0.238 NA
ATOM      7  H   ILE A   1      26.176 -13.395  21.937  0.00  0.00    +0.142 HD
ENDBRANCH   5   6
BRANCH   5   8
ATOM      8  CB  ILE A   1      26.053 -12.478  24.451  0.00  0.00    +0.025 C 
ATOM      9  CG2 ILE A   1      25.600 -11.921  25.823  0.00  0.00    +0.002 C 
BRANCH   8  10
ATOM     10  CG1 ILE A   1      27.295 -13.362  24.625  0.00  0.00    +0.002 C 
ATOM     11  CD1 ILE A   1      28.536 -12.586  25.158  0.00  0.00    +0.000 C 
ENDBRANCH   8  10
ENDBRANCH   5   8
ENDBRANCH   1   5
BRANCH   3  12
ATOM     12  CA  VAL A   2      22.260 -10.732  22.760  0.00  0.00    +0.137 C 
BRANCH  12  13
ATOM     13  CB  VAL A   2      22.468  -9.487  21.855  0.00  0.00    +0.026 C 
ATOM     14  CG2 VAL A   2      23.493  -8.557  22.473  0.00  0.00    +0.002 C 
ATOM     15  CG1 VAL A   2      21.152  -8.720  21.636  0.00  0.00    +0.002 C 
ENDBRANCH  12  13
BRANCH  12  16
ATOM     16  C   VAL A   2      21.062 -11.607  22.373  0.00  0.00    +0.227 C 
ATOM     17  O   VAL A   2      19.975 -11.490  22.958  0.00  0.00    -0.286 OA
ENDBRANCH  12  16
ENDBRANCH   3  12
TORSDOF 7
REMARK  Name = ../refined-set-2016/2euk/2euk_pocket.pdb
REMARK  286 active torsions:
REMARK  status: ('A' for Active; 'I' for Inactive)
REMARK    1  A    between atoms: _1  and  _5
REMARK    2  A    between atoms: _5  and  _6
REMARK    3  A    between atoms: _5  and  _8
REMARK    4  A    between atoms: _8  and  _9
REMARK    5  A    between atoms: _12  and  _14
REMARK    6  A    between atoms: _14  and  _15
REMARK    7  A    between atoms: _14  and  _17
REMARK    8  A    between atoms: _17  and  _18
REMARK    9  A    between atoms: _23  and  _25
REMARK   10  A    between atoms: _25  and  _26
REMARK   11  A    between atoms: _25  and  _28
REMARK   12  A    between atoms: _28  and  _29
REMARK   13  A    between atoms: _33  and  _34
REMARK   14  A    between atoms: _40  and  _41
REMARK   15  A    between atoms: _46  and  _48
REMARK   16  A    between atoms: _48  and  _49
REMARK   17  A    between atoms: _48  and  _51
REMARK   18  A    between atoms: _51  and  _52
REMARK   19  A    between atoms: _58  and  _60
REMARK   20  A    between atoms: _60  and  _61
REMARK   21  A    between atoms: _60  and  _63
REMARK   22  A    between atoms: _63  and  _64
REMARK   23  A    between atoms: _70  and  _72
REMARK   24  A    between atoms: _72  and  _73
REMARK   25  A    between atoms: _72  and  _75
REMARK   26  A    between atoms: _75  and  _76
REMARK   27  A    between atoms: _79  and  _81
REMARK   28  A    between atoms: _81  and  _82
REMARK   29  A    between atoms: _81  and  _84
REMARK   30  A    between atoms: _86  and  _88
REMARK   31  A    between atoms: _88  and  _89
REMARK   32  A    between atoms: _88  and  _91
REMARK   33  A    between atoms: _91  and  _92
REMARK   34  A    between atoms: _95  and  _97
REMARK   35  A    between atoms: _97  and  _98
REMARK   36  A    between atoms: _97  and  _100
REMARK   37  A    between atoms: _100  and  _101
REMARK   38  A    between atoms: _103  and  _105
REMARK   39  A    between atoms: _105  and  _106
REMARK   40  A    between atoms: _105  and  _108
REMARK   41  A    between atoms: _111  and  _113
REMARK   42  A    between atoms: _113  and  _114
REMARK   43  A    between atoms: _113  and  _116
REMARK   44  A    between atoms: _116  and  _117
REMARK   45  A    between atoms: _123  and  _125
REMARK   46  A    between atoms: _125  and  _126
REMARK   47  A    between atoms: _125  and  _128
REMARK   48  A    between atoms: _128  and  _129
REMARK   49  A    between atoms: _133  and  _134
REMARK   50  A    between atoms: _139  and  _141
REMARK   51  A    between atoms: _141  and  _142
REMARK   52  A    between atoms: _141  and  _144
REMARK   53  A    between atoms: _144  and  _145
REMARK   54  A    between atoms: _148  and  _150
REMARK   55  A    between atoms: _150  and  _151
REMARK   56  A    between atoms: _150  and  _153
REMARK   57  A    between atoms: _153  and  _154
REMARK   58  A    between atoms: _154  and  _155
REMARK   59  A    between atoms: _155  and  _156
REMARK   60  A    between atoms: _156  and  _157
REMARK   61  A    between atoms: _161  and  _163
REMARK   62  A    between atoms: _163  and  _164
REMARK   63  A    between atoms: _167  and  _169
REMARK   64  A    between atoms: _169  and  _170
REMARK   65  A    between atoms: _169  and  _172
REMARK   66  A    between atoms: _172  and  _173
REMARK   67  A    between atoms: _176  and  _178
REMARK   68  A    between atoms: _178  and  _179
REMARK   69  A    between atoms: _178  and  _181
REMARK   70  A    between atoms: _181  and  _182
REMARK   71  A    between atoms: _185  and  _187
REMARK   72  A    between atoms: _187  and  _188
REMARK   73  A    between atoms: _190  and  _192
REMARK   74  A    between atoms: _192  and  _193
REMARK   75  A    between atoms: _192  and  _195
REMARK   76  A    between atoms: _195  and  _196
REMARK   77  A    between atoms: _201  and  _203
REMARK   78  A    between atoms: _203  and  _204
REMARK   79  A    between atoms: _203  and  _206
REMARK   80  A    between atoms: _206  and  _207
REMARK   81  A    between atoms: _210  and  _212
REMARK   82  A    between atoms: _212  and  _213
REMARK   83  A    between atoms: _212  and  _215
REMARK   84  A    between atoms: _215  and  _216
REMARK   85  A    between atoms: _216  and  _217
REMARK   86  A    between atoms: _217  and  _218
REMARK   87  A    between atoms: _218  and  _219
REMARK   88  A    between atoms: _223  and  _225
REMARK   89  A    between atoms: _225  and  _226
REMARK   90  A    between atoms: _225  and  _228
REMARK   91  A    between atoms: _228  and  _229
REMARK   92  A    between atoms: _229  and  _230
REMARK   93  A    between atoms: _230  and  _231
REMARK   94  A    between atoms: _231  and  _232
REMARK   95  A    between atoms: _236  and  _238
REMARK   96  A    between atoms: _238  and  _239
REMARK   97  A    between atoms: _241  and  _243
REMARK   98  A    between atoms: _243  and  _244
REMARK   99  A    between atoms: _243  and  _246
REMARK  100  A    between atoms: _246  and  _247
REMARK  101  A    between atoms: _250  and  _252
REMARK  102  A    between atoms: _252  and  _253
REMARK  103  A    between atoms: _256  and  _258
REMARK  104  A    between atoms: _258  and  _259
REMARK  105  A    between atoms: _258  and  _261
REMARK  106  A    between atoms: _261  and  _262
REMARK  107  A    between atoms: _265  and  _267
REMARK  108  A    between atoms: _267  and  _268
REMARK  109  A    between atoms: _267  and  _270
REMARK  110  A    between atoms: _270  and  _271
REMARK  111  A    between atoms: _271  and  _272
REMARK  112  A    between atoms: _274  and  _276
REMARK  113  A    between atoms: _276  and  _277
REMARK  114  A    between atoms: _276  and  _279
REMARK  115  A    between atoms: _279  and  _280
REMARK  116  A    between atoms: _290  and  _292
REMARK  117  A    between atoms: _292  and  _293
REMARK  118  A    between atoms: _292  and  _295
REMARK  119  A    between atoms: _295  and  _296
REMARK  120  A    between atoms: _299  and  _301
REMARK  121  A    between atoms: _301  and  _302
REMARK  122  A    between atoms: _301  and  _304
REMARK  123  A    between atoms: _304  and  _305
REMARK  124  A    between atoms: _305  and  _306
REMARK  125  A    between atoms: _306  and  _307
REMARK  126  A    between atoms: _307  and  _308
REMARK  127  A    between atoms: _312  and  _314
REMARK  128  A    between atoms: _314  and  _315
REMARK  129  A    between atoms: _314  and  _317
REMARK  130  A    between atoms: _317  and  _318
REMARK  131  A    between atoms: _318  and  _319
REMARK  132  A    between atoms: _319  and  _320
REMARK  133  A    between atoms: _329  and  _331
REMARK  134  A    between atoms: _331  and  _332
REMARK  135  A    between atoms: _334  and  _336
REMARK  136  A    between atoms: _336  and  _337
REMARK  137  A    between atoms: _336  and  _339
REMARK  138  A    between atoms: _339  and  _340
REMARK  139  A    between atoms: _343  and  _345
REMARK  140  A    between atoms: _345  and  _346
REMARK  141  A    between atoms: _345  and  _348
REMARK  142  A    between atoms: _348  and  _349
REMARK  143  A    between atoms: _349  and  _350
REMARK  144  A    between atoms: _350  and  _351
REMARK  145  A    between atoms: _360  and  _362
REMARK  146  A    between atoms: _362  and  _363
REMARK  147  A    between atoms: _362  and  _365
REMARK  148  A    between atoms: _365  and  _366
REMARK  149  A    between atoms: _372  and  _374
REMARK  150  A    between atoms: _374  and  _375
REMARK  151  A    between atoms: _374  and  _377
REMARK  152  A    between atoms: _377  and  _378
REMARK  153  A    between atoms: _381  and  _383
REMARK  154  A    between atoms: _383  and  _384
REMARK  155  A    between atoms: _383  and  _386
REMARK  156  A    between atoms: _386  and  _387
REMARK  157  A    between atoms: _387  and  _388
REMARK  158  A    between atoms: _393  and  _395
REMARK  159  A    between atoms: _395  and  _396
REMARK  160  A    between atoms: _395  and  _398
REMARK  161  A    between atoms: _398  and  _399
REMARK  162  A    between atoms: _405  and  _407
REMARK  163  A    between atoms: _407  and  _408
REMARK  164  A    between atoms: _407  and  _410
REMARK  165  A    between atoms: _410  and  _411
REMARK  166  A    between atoms: _414  and  _416
REMARK  167  A    between atoms: _416  and  _417
REMARK  168  A    between atoms: _416  and  _419
REMARK  169  A    between atoms: _419  and  _420
REMARK  170  A    between atoms: _423  and  _425
REMARK  171  A    between atoms: _425  and  _426
REMARK  172  A    between atoms: _425  and  _428
REMARK  173  A    between atoms: _428  and  _429
REMARK  174  A    between atoms: _429  and  _430
REMARK  175  A    between atoms: _430  and  _431
REMARK  176  A    between atoms: _440  and  _442
REMARK  177  A    between atoms: _442  and  _443
REMARK  178  A    between atoms: _442  and  _445
REMARK  179  A    between atoms: _445  and  _446
REMARK  180  A    between atoms: _451  and  _453
REMARK  181  A    between atoms: _453  and  _454
REMARK  182  A    between atoms: _457  and  _459
REMARK  183  A    between atoms: _459  and  _460
REMARK  184  A    between atoms: _459  and  _462
REMARK  185  A    between atoms: _462  and  _463
REMARK  186  A    between atoms: _466  and  _468
REMARK  187  A    between atoms: _468  and  _469
REMARK  188  A    between atoms: _472  and  _474
REMARK  189  A    between atoms: _474  and  _475
REMARK  190  A    between atoms: _474  and  _477
REMARK  191  A    between atoms: _477  and  _478
REMARK  192  A    between atoms: _483  and  _484
REMARK  193  A    between atoms: _486  and  _488
REMARK  194  A    between atoms: _488  and  _489
REMARK  195  A    between atoms: _492  and  _494
REMARK  196  A    between atoms: _494  and  _495
REMARK  197  A    between atoms: _494  and  _497
REMARK  198  A    between atoms: _497  and  _498
REMARK  199  A    between atoms: _501  and  _503
REMARK  200  A    between atoms: _503  and  _504
REMARK  201  A    between atoms: _503  and  _506
REMARK  202  A    between atoms: _506  and  _507
REMARK  203  A    between atoms: _507  and  _508
REMARK  204  A    between atoms: _508  and  _509
REMARK  205  A    between atoms: _509  and  _510
REMARK  206  A    between atoms: _514  and  _516
REMARK  207  A    between atoms: _516  and  _517
REMARK  208  A    between atoms: _516  and  _519
REMARK  209  A    between atoms: _519  and  _520
REMARK  210  A    between atoms: _525  and  _526
REMARK  211  A    between atoms: _528  and  _530
REMARK  212  A    between atoms: _530  and  _531
REMARK  213  A    between atoms: _530  and  _533
REMARK  214  A    between atoms: _533  and  _534
REMARK  215  A    between atoms: _539  and  _541
REMARK  216  A    between atoms: _541  and  _542
REMARK  217  A    between atoms: _544  and  _546
REMARK  218  A    between atoms: _546  and  _547
REMARK  219  A    between atoms: _546  and  _549
REMARK  220  A    between atoms: _549  and  _550
REMARK  221  A    between atoms: _553  and  _555
REMARK  222  A    between atoms: _555  and  _556
REMARK  223  A    between atoms: _555  and  _558
REMARK  224  A    between atoms: _561  and  _563
REMARK  225  A    between atoms: _563  and  _564
REMARK  226  A    between atoms: _563  and  _566
REMARK  227  A    between atoms: _566  and  _567
REMARK  228  A    between atoms: _570  and  _572
REMARK  229  A    between atoms: _572  and  _573
REMARK  230  A    between atoms: _572  and  _575
REMARK  231  A    between atoms: _575  and  _576
REMARK  232  A    between atoms: _582  and  _584
REMARK  233  A    between atoms: _584  and  _585
REMARK  234  A    between atoms: _584  and  _587
REMARK  235  A    between atoms: _587  and  _588
REMARK  236  A    between atoms: _588  and  _589
REMARK  237  A    between atoms: _594  and  _596
REMARK  238  A    between atoms: _596  and  _597
REMARK  239  A    between atoms: _600  and  _602
REMARK  240  A    between atoms: _602  and  _603
REMARK  241  A    between atoms: _606  and  _608
REMARK  242  A    between atoms: _608  and  _609
REMARK  243  A    between atoms: _608  and  _611
REMARK  244  A    between atoms: _611  and  _612
REMARK  245  A    between atoms: _615  and  _617
REMARK  246  A    between atoms: _617  and  _618
REMARK  247  A    between atoms: _617  and  _620
REMARK  248  A    between atoms: _620  and  _621
REMARK  249  A    between atoms: _626  and  _627
REMARK  250  A    between atoms: _629  and  _631
REMARK  251  A    between atoms: _631  and  _632
REMARK  252  A    between atoms: _635  and  _637
REMARK  253  A    between atoms: _637  and  _638
REMARK  254  A    between atoms: _642  and  _643
REMARK  255  A    between atoms: _648  and  _650
REMARK  256  A    between atoms: _650  and  _651
REMARK  257  A    between atoms: _650  and  _653
REMARK  258  A    between atoms: _653  and  _654
REMARK  259  A    between atoms: _660  and  _662
REMARK  260  A    between atoms: _662  and  _663
REMARK  261  A    between atoms: _662  and  _665
REMARK  262  A    between atoms: _665  and  _666
REMARK  263  A    between atoms: _669  and  _671
REMARK  264  A    between atoms: _671  and  _672
REMARK  265  A    between atoms: _671  and  _674
REMARK  266  A    between atoms: _674  and  _675
REMARK  267  A    between atoms: _681  and  _683
REMARK  268  A    between atoms: _683  and  _684
REMARK  269  A    between atoms: _683  and  _686
REMARK  270  A    between atoms: _686  and  _687
REMARK  271  A    between atoms: _692  and  _693
REMARK  272  A    between atoms: _695  and  _697
REMARK  273  A    between atoms: _697  and  _698
REMARK  274  A    between atoms: _697  and  _700
REMARK  275  A    between atoms: _700  and  _701
REMARK  276  A    between atoms: _706  and  _707
REMARK  277  A    between atoms: _709  and  _711
REMARK  278  A    between atoms: _711  and  _712
REMARK  279  A    between atoms: _711  and  _714
REMARK  280  A    between atoms: _714  and  _715
REMARK  281  A    between atoms: _715  and  _716
REMARK  282  A    between atoms: _716  and  _717
REMARK  283  A    between atoms: _717  and  _718
REMARK  284  A    between atoms: _722  and  _724
REMARK  285  A    between atoms: _724  and  _725
REMARK  286  A    between atoms: _724  and  _727
REMARK                            x       y       z     vdW  Elec       q    Type
REMARK                         _______ _______ _______ _____ _____    ______ ____
ROOT
ATOM      1  C   ALA A   5      11.927 -11.756  27.130  0.00  0.00    +0.241 C 
ATOM      2  O   ALA A   5      10.900 -11.219  27.533  0.00  0.00    -0.273 OA
ATOM      3  N   LEU A   6      11.920 -12.733  26.216  0.00  0.00    -0.297 N 
ATOM      4  H   LEU A   6      12.824 -13.159  25.927  0.00  0.00    +0.150 HD
ENDROOT
BRANCH   1   5
ATOM      5  CA  ALA A   5      13.291 -11.347  27.693  0.00  0.00    +0.149 C 
ATOM      6  CB  ALA A   5      13.889 -10.159  26.945  0.00  0.00    +0.031 C 
BRANCH   5   9
ATOM      7  C   ALA A   4      14.021 -13.578  28.348  0.00  0.00    +0.241 C 
ATOM      8  O   ALA A   4      13.039 -13.751  29.070  0.00  0.00    -0.273 OA
ATOM      9  N   ALA A   5      14.204 -12.482  27.614  0.00  0.00    -0.297 N 
ATOM     10  H   ALA A   5      15.018 -12.434  26.968  0.00  0.00    +0.150 HD
BRANCH   7  11
ATOM     11  CA  ALA A   4      15.119 -14.617  28.232  0.00  0.00    +0.149 C 
ATOM     12  CB  ALA A   4      16.338 -14.213  29.075  0.00  0.00    +0.031 C 
BRANCH  11  14
ATOM     13  C   GLN A   3      14.760 -15.438  25.962  0.00  0.00    +0.241 C 
ATOM     14  N   ALA A   4      15.492 -14.735  26.825  0.00  0.00    -0.297 N 
ATOM     15  H   ALA A   4      16.352 -14.257  26.488  0.00  0.00    +0.150 HD
ATOM     16  O   GLN A   3      13.751 -16.037  26.312  0.00  0.00    -0.273 OA
BRANCH  13  17
ATOM     17  CA  GLN A   3      15.264 -15.518  24.521  0.00  0.00    +0.149 C 
BRANCH  17  20
ATOM     18  C   PHE A   2      15.403 -13.130  24.147  0.00  0.00    +0.241 C 
ATOM     19  O   PHE A   2      14.223 -13.021  24.518  0.00  0.00    -0.273 OA
ATOM     20  N   GLN A   3      16.002 -14.315  24.126  0.00  0.00    -0.297 N 
ATOM     21  H   GLN A   3      16.996 -14.389  23.829  0.00  0.00    +0.150 HD
BRANCH  18  22
ATOM     22  CA  PHE A   2      16.241 -11.907  23.732  0.00  0.00    +0.153 C 
BRANCH  22  25
ATOM     23  C   ILE A   1      17.691 -12.004  25.659  0.00  0.00    +0.238 C 
ATOM     24  O   ILE A   1      16.714 -11.955  26.419  0.00  0.00    -0.274 OA
ATOM     25  N   PHE A   2      17.575 -11.925  24.331  0.00  0.00    -0.297 N 
ATOM     26  H   PHE A   2      18.423 -11.877  23.730  0.00  0.00    +0.150 HD
BRANCH  23  27
ATOM     27  CA  ILE A   1      19.114 -12.196  26.223  0.00  0.00    +0.145 C 
BRANCH  27  28
ATOM     28  N   ILE A   1      19.882 -13.184  25.446  0.00  0.00    -0.238 NA
ATOM     29  H   ILE A   1      20.738 -12.872  24.944  0.00  0.00    +0.142 HD
ENDBRANCH  27  28
BRANCH  27  30
ATOM     30  CB  ILE A   1      19.897 -10.862  26.367  0.00  0.00    +0.025 C 
ATOM     31  CG2 ILE A   1      19.041  -9.803  27.092  0.00  0.00    +0.002 C 
BRANCH  30  32
ATOM     32  CG1 ILE A   1      21.199 -11.151  27.138  0.00  0.00    +0.002 C 
ATOM     33  CD1 ILE A   1      22.316 -10.155  26.987  0.00  0.00    +0.000 C 
ENDBRANCH  30  32
ENDBRANCH  27  30
ENDBRANCH  23  27
ENDBRANCH  22  25
BRANCH  22  34
ATOM     34  CB  PHE A   2      16.276 -11.785  22.205  0.00  0.00    +0.055 C 
BRANCH  34  35
ATOM     35  CG  PHE A   2      14.921 -12.023  21.591  0.00  0.00    -0.020 A 
ATOM     36  CD2 PHE A   2      13.969 -11.011  21.582  0.00  0.00    -0.004 A 
ATOM     37  CE2 PHE A   2      12.702 -11.228  21.067  0.00  0.00    -0.000 A 
ATOM     38  CZ  PHE A   2      12.357 -12.490  20.600  0.00  0.00    -0.000 A 
ATOM     39  CE1 PHE A   2      13.298 -13.517  20.614  0.00  0.00    -0.000 A 
ATOM     40  CD1 PHE A   2      14.554 -13.294  21.144  0.00  0.00    -0.004 A 
ENDBRANCH  34  35
ENDBRANCH  22  34
ENDBRANCH  18  22
ENDBRANCH  17  20
BRANCH  17  41
ATOM     41  CB  GLN A   3      16.162 -16.750  24.352  0.00  0.00    +0.039 C 
BRANCH  41  42
ATOM     42  CG  GLN A   3      16.512 -17.077  22.922  0.00  0.00    +0.087 C 
BRANCH  42  43
ATOM     43  CD  GLN A   3      17.669 -18.059  22.825  0.00  0.00    +0.219 C 
ATOM     44  OE1 GLN A   3      17.794 -18.962  23.663  0.00  0.00    -0.275 OA
ATOM     45  NE2 GLN A   3      18.534 -17.879  21.817  0.00  0.00    -0.329 N 
ATOM     46 HE21 GLN A   3      19.352 -18.513  21.715  0.00  0.00    +0.145 HD
ATOM     47 HE22 GLN A   3      18.387 -17.106  21.137  0.00  0.00    +0.145 HD
ENDBRANCH  42  43
ENDBRANCH  41  42
ENDBRANCH  17  41
ENDBRANCH  13  17
ENDBRANCH  11  14
ENDBRANCH   7  11
ENDBRANCH   5   9
ENDBRANCH   1   5
BRANCH   3  48
ATOM     48  CA  LEU A   6      10.681 -13.221  25.611  0.00  0.00    +0.149 C 
BRANCH  48  49
ATOM     49  C   LEU A   6       9.703 -13.617  26.706  0.00  0.00    +0.241 C 
ATOM     50  N   TYR A   7      10.233 -14.079  27.833  0.00  0.00    -0.297 N 
ATOM     51  H   TYR A   7      11.267 -14.113  27.942  0.00  0.00    +0.150 HD
ATOM     52  O   LEU A   6       8.496 -13.446  26.571  0.00  0.00    -0.273 OA
BRANCH  50  53
ATOM     53  CA  TYR A   7       9.377 -14.538  28.916  0.00  0.00    +0.153 C 
BRANCH  53  54
ATOM     54  C   TYR A   7       8.652 -13.440  29.676  0.00  0.00    +0.241 C 
ATOM     55  O   TYR A   7       7.765 -13.718  30.486  0.00  0.00    -0.273 OA
ATOM     56  N   ALA A   8       9.033 -12.195  29.396  0.00  0.00    -0.297 N 
ATOM     57  H   ALA A   8       9.842 -12.052  28.759  0.00  0.00    +0.150 HD
BRANCH  56  58
ATOM     58  CA  ALA A   8       8.359 -11.019  29.949  0.00  0.00    +0.149 C 
ATOM     59  CB  ALA A   8       9.358  -9.885  30.182  0.00  0.00    +0.031 C 
BRANCH  58  60
ATOM     60  C   ALA A   8       7.186 -10.501  29.117  0.00  0.00    +0.241 C 
ATOM     61  O   ALA A   8       6.517  -9.569  29.549  0.00  0.00    -0.273 OA
ATOM     62  N   ALA A   9       6.954 -11.070  27.937  0.00  0.00    -0.297 N 
ATOM     63  H   ALA A   9       7.628 -11.779  27.584  0.00  0.00    +0.150 HD
BRANCH  62  64
ATOM     64  CA  ALA A   9       5.780 -10.737  27.110  0.00  0.00    +0.149 C 
ATOM     65  CB  ALA A   9       5.733 -11.603  25.872  0.00  0.00    +0.031 C 
BRANCH  64  66
ATOM     66  C   ALA A   9       4.443 -10.859  27.861  0.00  0.00    +0.244 C 
ATOM     67  O   ALA A   9       4.229 -11.855  28.556  0.00  0.00    -0.273 OA
ATOM     68  N   PRO A  10       3.545  -9.861  27.714  0.00  0.00    -0.273 N 
ATOM     69  CA  PRO A  10       2.208 -10.054  28.285  0.00  0.00    +0.140 C 
ATOM     70  CB  PRO A  10       1.576  -8.658  28.259  0.00  0.00    +0.030 C 
ATOM     71  CG  PRO A  10       2.566  -7.744  27.602  0.00  0.00    +0.024 C 
ATOM     72  CD  PRO A  10       3.712  -8.550  27.058  0.00  0.00    +0.094 C 
BRANCH  69  73
ATOM     73  C   PRO A  10       1.389 -11.082  27.504  0.00  0.00    +0.227 C 
ATOM     74  O   PRO A  10       1.821 -11.540  26.447  0.00  0.00    -0.286 OA
ENDBRANCH  69  73
ENDBRANCH  64  66
ENDBRANCH  62  64
ENDBRANCH  58  60
ENDBRANCH  56  58
ENDBRANCH  53  54
BRANCH  53  75
ATOM     75  CB  TYR A   7      10.159 -15.503  29.813  0.00  0.00    +0.055 C 
BRANCH  75  76
ATOM     76  CG  TYR A   7      10.347 -16.764  29.009  0.00  0.00    -0.020 A 
ATOM     77  CD2 TYR A   7       9.507 -17.862  29.195  0.00  0.00    -0.001 A 
ATOM     78  CE2 TYR A   7       9.634 -18.996  28.411  0.00  0.00    +0.036 A 
ATOM     79  CZ  TYR A   7      10.584 -19.028  27.401  0.00  0.00    +0.134 A 
ATOM     80  CE1 TYR A   7      11.408 -17.940  27.172  0.00  0.00    +0.036 A 
ATOM     81  CD1 TYR A   7      11.272 -16.806  27.970  0.00  0.00    -0.001 A 
BRANCH  79  82
ATOM     82  OH  TYR A   7      10.730 -20.155  26.618  0.00  0.00    -0.506 OA
ATOM     83  HH  TYR A   7      10.074 -20.840  26.902  0.00  0.00    +0.292 HD
ENDBRANCH  79  82
ENDBRANCH  75  76
ENDBRANCH  53  75
ENDBRANCH  50  53
ENDBRANCH  48  49
BRANCH  48  84
ATOM     84  CB  LEU A   6      10.976 -14.388  24.655  0.00  0.00    +0.029 C 
BRANCH  84  85
ATOM     85  CG  LEU A   6       9.904 -14.931  23.714  0.00  0.00    +0.002 C 
ATOM     86  CD2 LEU A   6       9.219 -13.809  22.926  0.00  0.00    +0.000 C 
ATOM     87  CD1 LEU A   6      10.561 -15.937  22.783  0.00  0.00    +0.000 C 
ENDBRANCH  84  85
ENDBRANCH  48  84
ENDBRANCH   3  48
TORSDOF 31
REMARK  Name = ../refined-set-2016/2euk/2euk_pocket.pdb
REMARK  286 active torsions:
REMARK  status: ('A' for Active; 'I' for Inactive)
REMARK    1  A    between atoms: _1  and  _5
REMARK    2  A    between atoms: _5  and  _6
REMARK    3  A    between atoms: _5  and  _8
REMARK    4  A    between atoms: _8  and  _9
REMARK    5  A    between atoms: _12  and  _14
REMARK    6  A    between atoms: _14  and  _15
REMARK    7  A    between atoms: _14  and  _17
REMARK    8  A    between atoms: _17  and  _18
REMARK    9  A    between atoms: _23  and  _25
REMARK   10  A    between atoms: _25  and  _26
REMARK   11  A    between atoms: _25  and  _28
REMARK   12  A    between atoms: _28  and  _29
REMARK   13  A    between atoms: _33  and  _34
REMARK   14  A    between atoms: _40  and  _41
REMARK   15  A    between atoms: _46  and  _48
REMARK   16  A    between atoms: _48  and  _49
REMARK   17  A    between atoms: _48  and  _51
REMARK   18  A    between atoms: _51  and  _52
REMARK   19  A    between atoms: _58  and  _60
REMARK   20  A    between atoms: _60  and  _61
REMARK   21  A    between atoms: _60  and  _63
REMARK   22  A    between atoms: _63  and  _64
REMARK   23  A    between atoms: _70  and  _72
REMARK   24  A    between atoms: _72  and  _73
REMARK   25  A    between atoms: _72  and  _75
REMARK   26  A    between atoms: _75  and  _76
REMARK   27  A    between atoms: _79  and  _81
REMARK   28  A    between atoms: _81  and  _82
REMARK   29  A    between atoms: _81  and  _84
REMARK   30  A    between atoms: _86  and  _88
REMARK   31  A    between atoms: _88  and  _89
REMARK   32  A    between atoms: _88  and  _91
REMARK   33  A    between atoms: _91  and  _92
REMARK   34  A    between atoms: _95  and  _97
REMARK   35  A    between atoms: _97  and  _98
REMARK   36  A    between atoms: _97  and  _100
REMARK   37  A    between atoms: _100  and  _101
REMARK   38  A    between atoms: _103  and  _105
REMARK   39  A    between atoms: _105  and  _106
REMARK   40  A    between atoms: _105  and  _108
REMARK   41  A    between atoms: _111  and  _113
REMARK   42  A    between atoms: _113  and  _114
REMARK   43  A    between atoms: _113  and  _116
REMARK   44  A    between atoms: _116  and  _117
REMARK   45  A    between atoms: _123  and  _125
REMARK   46  A    between atoms: _125  and  _126
REMARK   47  A    between atoms: _125  and  _128
REMARK   48  A    between atoms: _128  and  _129
REMARK   49  A    between atoms: _133  and  _134
REMARK   50  A    between atoms: _139  and  _141
REMARK   51  A    between atoms: _141  and  _142
REMARK   52  A    between atoms: _141  and  _144
REMARK   53  A    between atoms: _144  and  _145
REMARK   54  A    between atoms: _148  and  _150
REMARK   55  A    between atoms: _150  and  _151
REMARK   56  A    between atoms: _150  and  _153
REMARK   57  A    between atoms: _153  and  _154
REMARK   58  A    between atoms: _154  and  _155
REMARK   59  A    between atoms: _155  and  _156
REMARK   60  A    between atoms: _156  and  _157
REMARK   61  A    between atoms: _161  and  _163
REMARK   62  A    between atoms: _163  and  _164
REMARK   63  A    between atoms: _167  and  _169
REMARK   64  A    between atoms: _169  and  _170
REMARK   65  A    between atoms: _169  and  _172
REMARK   66  A    between atoms: _172  and  _173
REMARK   67  A    between atoms: _176  and  _178
REMARK   68  A    between atoms: _178  and  _179
REMARK   69  A    between atoms: _178  and  _181
REMARK   70  A    between atoms: _181  and  _182
REMARK   71  A    between atoms: _185  and  _187
REMARK   72  A    between atoms: _187  and  _188
REMARK   73  A    between atoms: _190  and  _192
REMARK   74  A    between atoms: _192  and  _193
REMARK   75  A    between atoms: _192  and  _195
REMARK   76  A    between atoms: _195  and  _196
REMARK   77  A    between atoms: _201  and  _203
REMARK   78  A    between atoms: _203  and  _204
REMARK   79  A    between atoms: _203  and  _206
REMARK   80  A    between atoms: _206  and  _207
REMARK   81  A    between atoms: _210  and  _212
REMARK   82  A    between atoms: _212  and  _213
REMARK   83  A    between atoms: _212  and  _215
REMARK   84  A    between atoms: _215  and  _216
REMARK   85  A    between atoms: _216  and  _217
REMARK   86  A    between atoms: _217  and  _218
REMARK   87  A    between atoms: _218  and  _219
REMARK   88  A    between atoms: _223  and  _225
REMARK   89  A    between atoms: _225  and  _226
REMARK   90  A    between atoms: _225  and  _228
REMARK   91  A    between atoms: _228  and  _229
REMARK   92  A    between atoms: _229  and  _230
REMARK   93  A    between atoms: _230  and  _231
REMARK   94  A    between atoms: _231  and  _232
REMARK   95  A    between atoms: _236  and  _238
REMARK   96  A    between atoms: _238  and  _239
REMARK   97  A    between atoms: _241  and  _243
REMARK   98  A    between atoms: _243  and  _244
REMARK   99  A    between atoms: _243  and  _246
REMARK  100  A    between atoms: _246  and  _247
REMARK  101  A    between atoms: _250  and  _252
REMARK  102  A    between atoms: _252  and  _253
REMARK  103  A    between atoms: _256  and  _258
REMARK  104  A    between atoms: _258  and  _259
REMARK  105  A    between atoms: _258  and  _261
REMARK  106  A    between atoms: _261  and  _262
REMARK  107  A    between atoms: _265  and  _267
REMARK  108  A    between atoms: _267  and  _268
REMARK  109  A    between atoms: _267  and  _270
REMARK  110  A    between atoms: _270  and  _271
REMARK  111  A    between atoms: _271  and  _272
REMARK  112  A    between atoms: _274  and  _276
REMARK  113  A    between atoms: _276  and  _277
REMARK  114  A    between atoms: _276  and  _279
REMARK  115  A    between atoms: _279  and  _280
REMARK  116  A    between atoms: _290  and  _292
REMARK  117  A    between atoms: _292  and  _293
REMARK  118  A    between atoms: _292  and  _295
REMARK  119  A    between atoms: _295  and  _296
REMARK  120  A    between atoms: _299  and  _301
REMARK  121  A    between atoms: _301  and  _302
REMARK  122  A    between atoms: _301  and  _304
REMARK  123  A    between atoms: _304  and  _305
REMARK  124  A    between atoms: _305  and  _306
REMARK  125  A    between atoms: _306  and  _307
REMARK  126  A    between atoms: _307  and  _308
REMARK  127  A    between atoms: _312  and  _314
REMARK  128  A    between atoms: _314  and  _315
REMARK  129  A    between atoms: _314  and  _317
REMARK  130  A    between atoms: _317  and  _318
REMARK  131  A    between atoms: _318  and  _319
REMARK  132  A    between atoms: _319  and  _320
REMARK  133  A    between atoms: _329  and  _331
REMARK  134  A    between atoms: _331  and  _332
REMARK  135  A    between atoms: _334  and  _336
REMARK  136  A    between atoms: _336  and  _337
REMARK  137  A    between atoms: _336  and  _339
REMARK  138  A    between atoms: _339  and  _340
REMARK  139  A    between atoms: _343  and  _345
REMARK  140  A    between atoms: _345  and  _346
REMARK  141  A    between atoms: _345  and  _348
REMARK  142  A    between atoms: _348  and  _349
REMARK  143  A    between atoms: _349  and  _350
REMARK  144  A    between atoms: _350  and  _351
REMARK  145  A    between atoms: _360  and  _362
REMARK  146  A    between atoms: _362  and  _363
REMARK  147  A    between atoms: _362  and  _365
REMARK  148  A    between atoms: _365  and  _366
REMARK  149  A    between atoms: _372  and  _374
REMARK  150  A    between atoms: _374  and  _375
REMARK  151  A    between atoms: _374  and  _377
REMARK  152  A    between atoms: _377  and  _378
REMARK  153  A    between atoms: _381  and  _383
REMARK  154  A    between atoms: _383  and  _384
REMARK  155  A    between atoms: _383  and  _386
REMARK  156  A    between atoms: _386  and  _387
REMARK  157  A    between atoms: _387  and  _388
REMARK  158  A    between atoms: _393  and  _395
REMARK  159  A    between atoms: _395  and  _396
REMARK  160  A    between atoms: _395  and  _398
REMARK  161  A    between atoms: _398  and  _399
REMARK  162  A    between atoms: _405  and  _407
REMARK  163  A    between atoms: _407  and  _408
REMARK  164  A    between atoms: _407  and  _410
REMARK  165  A    between atoms: _410  and  _411
REMARK  166  A    between atoms: _414  and  _416
REMARK  167  A    between atoms: _416  and  _417
REMARK  168  A    between atoms: _416  and  _419
REMARK  169  A    between atoms: _419  and  _420
REMARK  170  A    between atoms: _423  and  _425
REMARK  171  A    between atoms: _425  and  _426
REMARK  172  A    between atoms: _425  and  _428
REMARK  173  A    between atoms: _428  and  _429
REMARK  174  A    between atoms: _429  and  _430
REMARK  175  A    between atoms: _430  and  _431
REMARK  176  A    between atoms: _440  and  _442
REMARK  177  A    between atoms: _442  and  _443
REMARK  178  A    between atoms: _442  and  _445
REMARK  179  A    between atoms: _445  and  _446
REMARK  180  A    between atoms: _451  and  _453
REMARK  181  A    between atoms: _453  and  _454
REMARK  182  A    between atoms: _457  and  _459
REMARK  183  A    between atoms: _459  and  _460
REMARK  184  A    between atoms: _459  and  _462
REMARK  185  A    between atoms: _462  and  _463
REMARK  186  A    between atoms: _466  and  _468
REMARK  187  A    between atoms: _468  and  _469
REMARK  188  A    between atoms: _472  and  _474
REMARK  189  A    between atoms: _474  and  _475
REMARK  190  A    between atoms: _474  and  _477
REMARK  191  A    between atoms: _477  and  _478
REMARK  192  A    between atoms: _483  and  _484
REMARK  193  A    between atoms: _486  and  _488
REMARK  194  A    between atoms: _488  and  _489
REMARK  195  A    between atoms: _492  and  _494
REMARK  196  A    between atoms: _494  and  _495
REMARK  197  A    between atoms: _494  and  _497
REMARK  198  A    between atoms: _497  and  _498
REMARK  199  A    between atoms: _501  and  _503
REMARK  200  A    between atoms: _503  and  _504
REMARK  201  A    between atoms: _503  and  _506
REMARK  202  A    between atoms: _506  and  _507
REMARK  203  A    between atoms: _507  and  _508
REMARK  204  A    between atoms: _508  and  _509
REMARK  205  A    between atoms: _509  and  _510
REMARK  206  A    between atoms: _514  and  _516
REMARK  207  A    between atoms: _516  and  _517
REMARK  208  A    between atoms: _516  and  _519
REMARK  209  A    between atoms: _519  and  _520
REMARK  210  A    between atoms: _525  and  _526
REMARK  211  A    between atoms: _528  and  _530
REMARK  212  A    between atoms: _530  and  _531
REMARK  213  A    between atoms: _530  and  _533
REMARK  214  A    between atoms: _533  and  _534
REMARK  215  A    between atoms: _539  and  _541
REMARK  216  A    between atoms: _541  and  _542
REMARK  217  A    between atoms: _544  and  _546
REMARK  218  A    between atoms: _546  and  _547
REMARK  219  A    between atoms: _546  and  _549
REMARK  220  A    between atoms: _549  and  _550
REMARK  221  A    between atoms: _553  and  _555
REMARK  222  A    between atoms: _555  and  _556
REMARK  223  A    between atoms: _555  and  _558
REMARK  224  A    between atoms: _561  and  _563
REMARK  225  A    between atoms: _563  and  _564
REMARK  226  A    between atoms: _563  and  _566
REMARK  227  A    between atoms: _566  and  _567
REMARK  228  A    between atoms: _570  and  _572
REMARK  229  A    between atoms: _572  and  _573
REMARK  230  A    between atoms: _572  and  _575
REMARK  231  A    between atoms: _575  and  _576
REMARK  232  A    between atoms: _582  and  _584
REMARK  233  A    between atoms: _584  and  _585
REMARK  234  A    between atoms: _584  and  _587
REMARK  235  A    between atoms: _587  and  _588
REMARK  236  A    between atoms: _588  and  _589
REMARK  237  A    between atoms: _594  and  _596
REMARK  238  A    between atoms: _596  and  _597
REMARK  239  A    between atoms: _600  and  _602
REMARK  240  A    between atoms: _602  and  _603
REMARK  241  A    between atoms: _606  and  _608
REMARK  242  A    between atoms: _608  and  _609
REMARK  243  A    between atoms: _608  and  _611
REMARK  244  A    between atoms: _611  and  _612
REMARK  245  A    between atoms: _615  and  _617
REMARK  246  A    between atoms: _617  and  _618
REMARK  247  A    between atoms: _617  and  _620
REMARK  248  A    between atoms: _620  and  _621
REMARK  249  A    between atoms: _626  and  _627
REMARK  250  A    between atoms: _629  and  _631
REMARK  251  A    between atoms: _631  and  _632
REMARK  252  A    between atoms: _635  and  _637
REMARK  253  A    between atoms: _637  and  _638
REMARK  254  A    between atoms: _642  and  _643
REMARK  255  A    between atoms: _648  and  _650
REMARK  256  A    between atoms: _650  and  _651
REMARK  257  A    between atoms: _650  and  _653
REMARK  258  A    between atoms: _653  and  _654
REMARK  259  A    between atoms: _660  and  _662
REMARK  260  A    between atoms: _662  and  _663
REMARK  261  A    between atoms: _662  and  _665
REMARK  262  A    between atoms: _665  and  _666
REMARK  263  A    between atoms: _669  and  _671
REMARK  264  A    between atoms: _671  and  _672
REMARK  265  A    between atoms: _671  and  _674
REMARK  266  A    between atoms: _674  and  _675
REMARK  267  A    between atoms: _681  and  _683
REMARK  268  A    between atoms: _683  and  _684
REMARK  269  A    between atoms: _683  and  _686
REMARK  270  A    between atoms: _686  and  _687
REMARK  271  A    between atoms: _692  and  _693
REMARK  272  A    between atoms: _695  and  _697
REMARK  273  A    between atoms: _697  and  _698
REMARK  274  A    between atoms: _697  and  _700
REMARK  275  A    between atoms: _700  and  _701
REMARK  276  A    between atoms: _706  and  _707
REMARK  277  A    between atoms: _709  and  _711
REMARK  278  A    between atoms: _711  and  _712
REMARK  279  A    between atoms: _711  and  _714
REMARK  280  A    between atoms: _714  and  _715
REMARK  281  A    between atoms: _715  and  _716
REMARK  282  A    between atoms: _716  and  _717
REMARK  283  A    between atoms: _717  and  _718
REMARK  284  A    between atoms: _722  and  _724
REMARK  285  A    between atoms: _724  and  _725
REMARK  286  A    between atoms: _724  and  _727
REMARK                            x       y       z     vdW  Elec       q    Type
REMARK                         _______ _______ _______ _____ _____    ______ ____
ROOT
ATOM      1  CB  PHE A   1      -0.644  -7.445  24.384  0.00  0.00    +0.051 C 
ENDROOT
BRANCH   1   2
ATOM      2  CG  PHE A   1       0.063  -6.562  23.391  0.00  0.00    -0.020 A 
ATOM      3  CD2 PHE A   1       1.083  -5.711  23.806  0.00  0.00    -0.004 A 
ATOM      4  CE2 PHE A   1       1.747  -4.887  22.899  0.00  0.00    -0.000 A 
ATOM      5  CZ  PHE A   1       1.391  -4.922  21.557  0.00  0.00    -0.000 A 
ATOM      6  CE1 PHE A   1       0.360  -5.773  21.133  0.00  0.00    -0.000 A 
ATOM      7  CD1 PHE A   1      -0.285  -6.590  22.049  0.00  0.00    -0.004 A 
ENDBRANCH   1   2
BRANCH   1   8
ATOM      8  CA  PHE A   1      -1.454  -6.669  25.430  0.00  0.00    +0.137 C 
BRANCH   8   9
ATOM      9  N   PHE A   1      -2.123  -7.590  26.341  0.00  0.00    -0.239 NA
ATOM     10  H   PHE A   1      -1.970  -8.611  26.214  0.00  0.00    +0.142 HD
ENDBRANCH   8   9
BRANCH   8  11
ATOM     11  C   PHE A   1      -2.445  -5.724  24.745  0.00  0.00    +0.224 C 
ATOM     12  O   PHE A   1      -2.212  -4.512  24.653  0.00  0.00    -0.287 OA
ENDBRANCH   8  11
ENDBRANCH   1   8
TORSDOF 4
REMARK  Name = ../refined-set-2016/2euk/2euk_pocket.pdb
REMARK  286 active torsions:
REMARK  status: ('A' for Active; 'I' for Inactive)
REMARK    1  A    between atoms: _1  and  _5
REMARK    2  A    between atoms: _5  and  _6
REMARK    3  A    between atoms: _5  and  _8
REMARK    4  A    between atoms: _8  and  _9
REMARK    5  A    between atoms: _12  and  _14
REMARK    6  A    between atoms: _14  and  _15
REMARK    7  A    between atoms: _14  and  _17
REMARK    8  A    between atoms: _17  and  _18
REMARK    9  A    between atoms: _23  and  _25
REMARK   10  A    between atoms: _25  and  _26
REMARK   11  A    between atoms: _25  and  _28
REMARK   12  A    between atoms: _28  and  _29
REMARK   13  A    between atoms: _33  and  _34
REMARK   14  A    between atoms: _40  and  _41
REMARK   15  A    between atoms: _46  and  _48
REMARK   16  A    between atoms: _48  and  _49
REMARK   17  A    between atoms: _48  and  _51
REMARK   18  A    between atoms: _51  and  _52
REMARK   19  A    between atoms: _58  and  _60
REMARK   20  A    between atoms: _60  and  _61
REMARK   21  A    between atoms: _60  and  _63
REMARK   22  A    between atoms: _63  and  _64
REMARK   23  A    between atoms: _70  and  _72
REMARK   24  A    between atoms: _72  and  _73
REMARK   25  A    between atoms: _72  and  _75
REMARK   26  A    between atoms: _75  and  _76
REMARK   27  A    between atoms: _79  and  _81
REMARK   28  A    between atoms: _81  and  _82
REMARK   29  A    between atoms: _81  and  _84
REMARK   30  A    between atoms: _86  and  _88
REMARK   31  A    between atoms: _88  and  _89
REMARK   32  A    between atoms: _88  and  _91
REMARK   33  A    between atoms: _91  and  _92
REMARK   34  A    between atoms: _95  and  _97
REMARK   35  A    between atoms: _97  and  _98
REMARK   36  A    between atoms: _97  and  _100
REMARK   37  A    between atoms: _100  and  _101
REMARK   38  A    between atoms: _103  and  _105
REMARK   39  A    between atoms: _105  and  _106
REMARK   40  A    between atoms: _105  and  _108
REMARK   41  A    between atoms: _111  and  _113
REMARK   42  A    between atoms: _113  and  _114
REMARK   43  A    between atoms: _113  and  _116
REMARK   44  A    between atoms: _116  and  _117
REMARK   45  A    between atoms: _123  and  _125
REMARK   46  A    between atoms: _125  and  _126
REMARK   47  A    between atoms: _125  and  _128
REMARK   48  A    between atoms: _128  and  _129
REMARK   49  A    between atoms: _133  and  _134
REMARK   50  A    between atoms: _139  and  _141
REMARK   51  A    between atoms: _141  and  _142
REMARK   52  A    between atoms: _141  and  _144
REMARK   53  A    between atoms: _144  and  _145
REMARK   54  A    between atoms: _148  and  _150
REMARK   55  A    between atoms: _150  and  _151
REMARK   56  A    between atoms: _150  and  _153
REMARK   57  A    between atoms: _153  and  _154
REMARK   58  A    between atoms: _154  and  _155
REMARK   59  A    between atoms: _155  and  _156
REMARK   60  A    between atoms: _156  and  _157
REMARK   61  A    between atoms: _161  and  _163
REMARK   62  A    between atoms: _163  and  _164
REMARK   63  A    between atoms: _167  and  _169
REMARK   64  A    between atoms: _169  and  _170
REMARK   65  A    between atoms: _169  and  _172
REMARK   66  A    between atoms: _172  and  _173
REMARK   67  A    between atoms: _176  and  _178
REMARK   68  A    between atoms: _178  and  _179
REMARK   69  A    between atoms: _178  and  _181
REMARK   70  A    between atoms: _181  and  _182
REMARK   71  A    between atoms: _185  and  _187
REMARK   72  A    between atoms: _187  and  _188
REMARK   73  A    between atoms: _190  and  _192
REMARK   74  A    between atoms: _192  and  _193
REMARK   75  A    between atoms: _192  and  _195
REMARK   76  A    between atoms: _195  and  _196
REMARK   77  A    between atoms: _201  and  _203
REMARK   78  A    between atoms: _203  and  _204
REMARK   79  A    between atoms: _203  and  _206
REMARK   80  A    between atoms: _206  and  _207
REMARK   81  A    between atoms: _210  and  _212
REMARK   82  A    between atoms: _212  and  _213
REMARK   83  A    between atoms: _212  and  _215
REMARK   84  A    between atoms: _215  and  _216
REMARK   85  A    between atoms: _216  and  _217
REMARK   86  A    between atoms: _217  and  _218
REMARK   87  A    between atoms: _218  and  _219
REMARK   88  A    between atoms: _223  and  _225
REMARK   89  A    between atoms: _225  and  _226
REMARK   90  A    between atoms: _225  and  _228
REMARK   91  A    between atoms: _228  and  _229
REMARK   92  A    between atoms: _229  and  _230
REMARK   93  A    between atoms: _230  and  _231
REMARK   94  A    between atoms: _231  and  _232
REMARK   95  A    between atoms: _236  and  _238
REMARK   96  A    between atoms: _238  and  _239
REMARK   97  A    between atoms: _241  and  _243
REMARK   98  A    between atoms: _243  and  _244
REMARK   99  A    between atoms: _243  and  _246
REMARK  100  A    between atoms: _246  and  _247
REMARK  101  A    between atoms: _250  and  _252
REMARK  102  A    between atoms: _252  and  _253
REMARK  103  A    between atoms: _256  and  _258
REMARK  104  A    between atoms: _258  and  _259
REMARK  105  A    between atoms: _258  and  _261
REMARK  106  A    between atoms: _261  and  _262
REMARK  107  A    between atoms: _265  and  _267
REMARK  108  A    between atoms: _267  and  _268
REMARK  109  A    between atoms: _267  and  _270
REMARK  110  A    between atoms: _270  and  _271
REMARK  111  A    between atoms: _271  and  _272
REMARK  112  A    between atoms: _274  and  _276
REMARK  113  A    between atoms: _276  and  _277
REMARK  114  A    between atoms: _276  and  _279
REMARK  115  A    between atoms: _279  and  _280
REMARK  116  A    between atoms: _290  and  _292
REMARK  117  A    between atoms: _292  and  _293
REMARK  118  A    between atoms: _292  and  _295
REMARK  119  A    between atoms: _295  and  _296
REMARK  120  A    between atoms: _299  and  _301
REMARK  121  A    between atoms: _301  and  _302
REMARK  122  A    between atoms: _301  and  _304
REMARK  123  A    between atoms: _304  and  _305
REMARK  124  A    between atoms: _305  and  _306
REMARK  125  A    between atoms: _306  and  _307
REMARK  126  A    between atoms: _307  and  _308
REMARK  127  A    between atoms: _312  and  _314
REMARK  128  A    between atoms: _314  and  _315
REMARK  129  A    between atoms: _314  and  _317
REMARK  130  A    between atoms: _317  and  _318
REMARK  131  A    between atoms: _318  and  _319
REMARK  132  A    between atoms: _319  and  _320
REMARK  133  A    between atoms: _329  and  _331
REMARK  134  A    between atoms: _331  and  _332
REMARK  135  A    between atoms: _334  and  _336
REMARK  136  A    between atoms: _336  and  _337
REMARK  137  A    between atoms: _336  and  _339
REMARK  138  A    between atoms: _339  and  _340
REMARK  139  A    between atoms: _343  and  _345
REMARK  140  A    between atoms: _345  and  _346
REMARK  141  A    between atoms: _345  and  _348
REMARK  142  A    between atoms: _348  and  _349
REMARK  143  A    between atoms: _349  and  _350
REMARK  144  A    between atoms: _350  and  _351
REMARK  145  A    between atoms: _360  and  _362
REMARK  146  A    between atoms: _362  and  _363
REMARK  147  A    between atoms: _362  and  _365
REMARK  148  A    between atoms: _365  and  _366
REMARK  149  A    between atoms: _372  and  _374
REMARK  150  A    between atoms: _374  and  _375
REMARK  151  A    between atoms: _374  and  _377
REMARK  152  A    between atoms: _377  and  _378
REMARK  153  A    between atoms: _381  and  _383
REMARK  154  A    between atoms: _383  and  _384
REMARK  155  A    between atoms: _383  and  _386
REMARK  156  A    between atoms: _386  and  _387
REMARK  157  A    between atoms: _387  and  _388
REMARK  158  A    between atoms: _393  and  _395
REMARK  159  A    between atoms: _395  and  _396
REMARK  160  A    between atoms: _395  and  _398
REMARK  161  A    between atoms: _398  and  _399
REMARK  162  A    between atoms: _405  and  _407
REMARK  163  A    between atoms: _407  and  _408
REMARK  164  A    between atoms: _407  and  _410
REMARK  165  A    between atoms: _410  and  _411
REMARK  166  A    between atoms: _414  and  _416
REMARK  167  A    between atoms: _416  and  _417
REMARK  168  A    between atoms: _416  and  _419
REMARK  169  A    between atoms: _419  and  _420
REMARK  170  A    between atoms: _423  and  _425
REMARK  171  A    between atoms: _425  and  _426
REMARK  172  A    between atoms: _425  and  _428
REMARK  173  A    between atoms: _428  and  _429
REMARK  174  A    between atoms: _429  and  _430
REMARK  175  A    between atoms: _430  and  _431
REMARK  176  A    between atoms: _440  and  _442
REMARK  177  A    between atoms: _442  and  _443
REMARK  178  A    between atoms: _442  and  _445
REMARK  179  A    between atoms: _445  and  _446
REMARK  180  A    between atoms: _451  and  _453
REMARK  181  A    between atoms: _453  and  _454
REMARK  182  A    between atoms: _457  and  _459
REMARK  183  A    between atoms: _459  and  _460
REMARK  184  A    between atoms: _459  and  _462
REMARK  185  A    between atoms: _462  and  _463
REMARK  186  A    between atoms: _466  and  _468
REMARK  187  A    between atoms: _468  and  _469
REMARK  188  A    between atoms: _472  and  _474
REMARK  189  A    between atoms: _474  and  _475
REMARK  190  A    between atoms: _474  and  _477
REMARK  191  A    between atoms: _477  and  _478
REMARK  192  A    between atoms: _483  and  _484
REMARK  193  A    between atoms: _486  and  _488
REMARK  194  A    between atoms: _488  and  _489
REMARK  195  A    between atoms: _492  and  _494
REMARK  196  A    between atoms: _494  and  _495
REMARK  197  A    between atoms: _494  and  _497
REMARK  198  A    between atoms: _497  and  _498
REMARK  199  A    between atoms: _501  and  _503
REMARK  200  A    between atoms: _503  and  _504
REMARK  201  A    between atoms: _503  and  _506
REMARK  202  A    between atoms: _506  and  _507
REMARK  203  A    between atoms: _507  and  _508
REMARK  204  A    between atoms: _508  and  _509
REMARK  205  A    between atoms: _509  and  _510
REMARK  206  A    between atoms: _514  and  _516
REMARK  207  A    between atoms: _516  and  _517
REMARK  208  A    between atoms: _516  and  _519
REMARK  209  A    between atoms: _519  and  _520
REMARK  210  A    between atoms: _525  and  _526
REMARK  211  A    between atoms: _528  and  _530
REMARK  212  A    between atoms: _530  and  _531
REMARK  213  A    between atoms: _530  and  _533
REMARK  214  A    between atoms: _533  and  _534
REMARK  215  A    between atoms: _539  and  _541
REMARK  216  A    between atoms: _541  and  _542
REMARK  217  A    between atoms: _544  and  _546
REMARK  218  A    between atoms: _546  and  _547
REMARK  219  A    between atoms: _546  and  _549
REMARK  220  A    between atoms: _549  and  _550
REMARK  221  A    between atoms: _553  and  _555
REMARK  222  A    between atoms: _555  and  _556
REMARK  223  A    between atoms: _555  and  _558
REMARK  224  A    between atoms: _561  and  _563
REMARK  225  A    between atoms: _563  and  _564
REMARK  226  A    between atoms: _563  and  _566
REMARK  227  A    between atoms: _566  and  _567
REMARK  228  A    between atoms: _570  and  _572
REMARK  229  A    between atoms: _572  and  _573
REMARK  230  A    between atoms: _572  and  _575
REMARK  231  A    between atoms: _575  and  _576
REMARK  232  A    between atoms: _582  and  _584
REMARK  233  A    between atoms: _584  and  _585
REMARK  234  A    between atoms: _584  and  _587
REMARK  235  A    between atoms: _587  and  _588
REMARK  236  A    between atoms: _588  and  _589
REMARK  237  A    between atoms: _594  and  _596
REMARK  238  A    between atoms: _596  and  _597
REMARK  239  A    between atoms: _600  and  _602
REMARK  240  A    between atoms: _602  and  _603
REMARK  241  A    between atoms: _606  and  _608
REMARK  242  A    between atoms: _608  and  _609
REMARK  243  A    between atoms: _608  and  _611
REMARK  244  A    between atoms: _611  and  _612
REMARK  245  A    between atoms: _615  and  _617
REMARK  246  A    between atoms: _617  and  _618
REMARK  247  A    between atoms: _617  and  _620
REMARK  248  A    between atoms: _620  and  _621
REMARK  249  A    between atoms: _626  and  _627
REMARK  250  A    between atoms: _629  and  _631
REMARK  251  A    between atoms: _631  and  _632
REMARK  252  A    between atoms: _635  and  _637
REMARK  253  A    between atoms: _637  and  _638
REMARK  254  A    between atoms: _642  and  _643
REMARK  255  A    between atoms: _648  and  _650
REMARK  256  A    between atoms: _650  and  _651
REMARK  257  A    between atoms: _650  and  _653
REMARK  258  A    between atoms: _653  and  _654
REMARK  259  A    between atoms: _660  and  _662
REMARK  260  A    between atoms: _662  and  _663
REMARK  261  A    between atoms: _662  and  _665
REMARK  262  A    between atoms: _665  and  _666
REMARK  263  A    between atoms: _669  and  _671
REMARK  264  A    between atoms: _671  and  _672
REMARK  265  A    between atoms: _671  and  _674
REMARK  266  A    between atoms: _674  and  _675
REMARK  267  A    between atoms: _681  and  _683
REMARK  268  A    between atoms: _683  and  _684
REMARK  269  A    between atoms: _683  and  _686
REMARK  270  A    between atoms: _686  and  _687
REMARK  271  A    between atoms: _692  and  _693
REMARK  272  A    between atoms: _695  and  _697
REMARK  273  A    between atoms: _697  and  _698
REMARK  274  A    between atoms: _697  and  _700
REMARK  275  A    between atoms: _700  and  _701
REMARK  276  A    between atoms: _706  and  _707
REMARK  277  A    between atoms: _709  and  _711
REMARK  278  A    between atoms: _711  and  _712
REMARK  279  A    between atoms: _711  and  _714
REMARK  280  A    between atoms: _714  and  _715
REMARK  281  A    between atoms: _715  and  _716
REMARK  282  A    between atoms: _716  and  _717
REMARK  283  A    between atoms: _717  and  _718
REMARK  284  A    between atoms: _722  and  _724
REMARK  285  A    between atoms: _724  and  _725
REMARK  286  A    between atoms: _724  and  _727
REMARK                            x       y       z     vdW  Elec       q    Type
REMARK                         _______ _______ _______ _____ _____    ______ ____
ROOT
ATOM      1  CA  LEU A   1      -3.330  -0.583  23.708  0.00  0.00    +0.133 C 
ENDROOT
BRANCH   1   2
ATOM      2  N   LEU A   1      -3.290  -1.542  24.811  0.00  0.00    -0.239 NA
ATOM      3  H   LEU A   1      -3.402  -2.557  24.613  0.00  0.00    +0.142 HD
ENDBRANCH   1   2
BRANCH   1   4
ATOM      4  C   LEU A   1      -4.719   0.074  23.605  0.00  0.00    +0.224 C 
ATOM      5  O   LEU A   1      -4.898   1.015  22.835  0.00  0.00    -0.287 OA
ENDBRANCH   1   4
BRANCH   1   6
ATOM      6  CB  LEU A   1      -2.936  -1.246  22.377  0.00  0.00    +0.025 C 
BRANCH   6   7
ATOM      7  CG  LEU A   1      -1.603  -1.970  22.157  0.00  0.00    +0.002 C 
ATOM      8  CD2 LEU A   1      -0.420  -1.035  22.229  0.00  0.00    +0.000 C 
ATOM      9  CD1 LEU A   1      -1.562  -2.712  20.815  0.00  0.00    +0.000 C 
ENDBRANCH   6   7
ENDBRANCH   1   6
TORSDOF 4
REMARK  Name = ../refined-set-2016/2euk/2euk_pocket.pdb
REMARK  286 active torsions:
REMARK  status: ('A' for Active; 'I' for Inactive)
REMARK    1  A    between atoms: _1  and  _5
REMARK    2  A    between atoms: _5  and  _6
REMARK    3  A    between atoms: _5  and  _8
REMARK    4  A    between atoms: _8  and  _9
REMARK    5  A    between atoms: _12  and  _14
REMARK    6  A    between atoms: _14  and  _15
REMARK    7  A    between atoms: _14  and  _17
REMARK    8  A    between atoms: _17  and  _18
REMARK    9  A    between atoms: _23  and  _25
REMARK   10  A    between atoms: _25  and  _26
REMARK   11  A    between atoms: _25  and  _28
REMARK   12  A    between atoms: _28  and  _29
REMARK   13  A    between atoms: _33  and  _34
REMARK   14  A    between atoms: _40  and  _41
REMARK   15  A    between atoms: _46  and  _48
REMARK   16  A    between atoms: _48  and  _49
REMARK   17  A    between atoms: _48  and  _51
REMARK   18  A    between atoms: _51  and  _52
REMARK   19  A    between atoms: _58  and  _60
REMARK   20  A    between atoms: _60  and  _61
REMARK   21  A    between atoms: _60  and  _63
REMARK   22  A    between atoms: _63  and  _64
REMARK   23  A    between atoms: _70  and  _72
REMARK   24  A    between atoms: _72  and  _73
REMARK   25  A    between atoms: _72  and  _75
REMARK   26  A    between atoms: _75  and  _76
REMARK   27  A    between atoms: _79  and  _81
REMARK   28  A    between atoms: _81  and  _82
REMARK   29  A    between atoms: _81  and  _84
REMARK   30  A    between atoms: _86  and  _88
REMARK   31  A    between atoms: _88  and  _89
REMARK   32  A    between atoms: _88  and  _91
REMARK   33  A    between atoms: _91  and  _92
REMARK   34  A    between atoms: _95  and  _97
REMARK   35  A    between atoms: _97  and  _98
REMARK   36  A    between atoms: _97  and  _100
REMARK   37  A    between atoms: _100  and  _101
REMARK   38  A    between atoms: _103  and  _105
REMARK   39  A    between atoms: _105  and  _106
REMARK   40  A    between atoms: _105  and  _108
REMARK   41  A    between atoms: _111  and  _113
REMARK   42  A    between atoms: _113  and  _114
REMARK   43  A    between atoms: _113  and  _116
REMARK   44  A    between atoms: _116  and  _117
REMARK   45  A    between atoms: _123  and  _125
REMARK   46  A    between atoms: _125  and  _126
REMARK   47  A    between atoms: _125  and  _128
REMARK   48  A    between atoms: _128  and  _129
REMARK   49  A    between atoms: _133  and  _134
REMARK   50  A    between atoms: _139  and  _141
REMARK   51  A    between atoms: _141  and  _142
REMARK   52  A    between atoms: _141  and  _144
REMARK   53  A    between atoms: _144  and  _145
REMARK   54  A    between atoms: _148  and  _150
REMARK   55  A    between atoms: _150  and  _151
REMARK   56  A    between atoms: _150  and  _153
REMARK   57  A    between atoms: _153  and  _154
REMARK   58  A    between atoms: _154  and  _155
REMARK   59  A    between atoms: _155  and  _156
REMARK   60  A    between atoms: _156  and  _157
REMARK   61  A    between atoms: _161  and  _163
REMARK   62  A    between atoms: _163  and  _164
REMARK   63  A    between atoms: _167  and  _169
REMARK   64  A    between atoms: _169  and  _170
REMARK   65  A    between atoms: _169  and  _172
REMARK   66  A    between atoms: _172  and  _173
REMARK   67  A    between atoms: _176  and  _178
REMARK   68  A    between atoms: _178  and  _179
REMARK   69  A    between atoms: _178  and  _181
REMARK   70  A    between atoms: _181  and  _182
REMARK   71  A    between atoms: _185  and  _187
REMARK   72  A    between atoms: _187  and  _188
REMARK   73  A    between atoms: _190  and  _192
REMARK   74  A    between atoms: _192  and  _193
REMARK   75  A    between atoms: _192  and  _195
REMARK   76  A    between atoms: _195  and  _196
REMARK   77  A    between atoms: _201  and  _203
REMARK   78  A    between atoms: _203  and  _204
REMARK   79  A    between atoms: _203  and  _206
REMARK   80  A    between atoms: _206  and  _207
REMARK   81  A    between atoms: _210  and  _212
REMARK   82  A    between atoms: _212  and  _213
REMARK   83  A    between atoms: _212  and  _215
REMARK   84  A    between atoms: _215  and  _216
REMARK   85  A    between atoms: _216  and  _217
REMARK   86  A    between atoms: _217  and  _218
REMARK   87  A    between atoms: _218  and  _219
REMARK   88  A    between atoms: _223  and  _225
REMARK   89  A    between atoms: _225  and  _226
REMARK   90  A    between atoms: _225  and  _228
REMARK   91  A    between atoms: _228  and  _229
REMARK   92  A    between atoms: _229  and  _230
REMARK   93  A    between atoms: _230  and  _231
REMARK   94  A    between atoms: _231  and  _232
REMARK   95  A    between atoms: _236  and  _238
REMARK   96  A    between atoms: _238  and  _239
REMARK   97  A    between atoms: _241  and  _243
REMARK   98  A    between atoms: _243  and  _244
REMARK   99  A    between atoms: _243  and  _246
REMARK  100  A    between atoms: _246  and  _247
REMARK  101  A    between atoms: _250  and  _252
REMARK  102  A    between atoms: _252  and  _253
REMARK  103  A    between atoms: _256  and  _258
REMARK  104  A    between atoms: _258  and  _259
REMARK  105  A    between atoms: _258  and  _261
REMARK  106  A    between atoms: _261  and  _262
REMARK  107  A    between atoms: _265  and  _267
REMARK  108  A    between atoms: _267  and  _268
REMARK  109  A    between atoms: _267  and  _270
REMARK  110  A    between atoms: _270  and  _271
REMARK  111  A    between atoms: _271  and  _272
REMARK  112  A    between atoms: _274  and  _276
REMARK  113  A    between atoms: _276  and  _277
REMARK  114  A    between atoms: _276  and  _279
REMARK  115  A    between atoms: _279  and  _280
REMARK  116  A    between atoms: _290  and  _292
REMARK  117  A    between atoms: _292  and  _293
REMARK  118  A    between atoms: _292  and  _295
REMARK  119  A    between atoms: _295  and  _296
REMARK  120  A    between atoms: _299  and  _301
REMARK  121  A    between atoms: _301  and  _302
REMARK  122  A    between atoms: _301  and  _304
REMARK  123  A    between atoms: _304  and  _305
REMARK  124  A    between atoms: _305  and  _306
REMARK  125  A    between atoms: _306  and  _307
REMARK  126  A    between atoms: _307  and  _308
REMARK  127  A    between atoms: _312  and  _314
REMARK  128  A    between atoms: _314  and  _315
REMARK  129  A    between atoms: _314  and  _317
REMARK  130  A    between atoms: _317  and  _318
REMARK  131  A    between atoms: _318  and  _319
REMARK  132  A    between atoms: _319  and  _320
REMARK  133  A    between atoms: _329  and  _331
REMARK  134  A    between atoms: _331  and  _332
REMARK  135  A    between atoms: _334  and  _336
REMARK  136  A    between atoms: _336  and  _337
REMARK  137  A    between atoms: _336  and  _339
REMARK  138  A    between atoms: _339  and  _340
REMARK  139  A    between atoms: _343  and  _345
REMARK  140  A    between atoms: _345  and  _346
REMARK  141  A    between atoms: _345  and  _348
REMARK  142  A    between atoms: _348  and  _349
REMARK  143  A    between atoms: _349  and  _350
REMARK  144  A    between atoms: _350  and  _351
REMARK  145  A    between atoms: _360  and  _362
REMARK  146  A    between atoms: _362  and  _363
REMARK  147  A    between atoms: _362  and  _365
REMARK  148  A    between atoms: _365  and  _366
REMARK  149  A    between atoms: _372  and  _374
REMARK  150  A    between atoms: _374  and  _375
REMARK  151  A    between atoms: _374  and  _377
REMARK  152  A    between atoms: _377  and  _378
REMARK  153  A    between atoms: _381  and  _383
REMARK  154  A    between atoms: _383  and  _384
REMARK  155  A    between atoms: _383  and  _386
REMARK  156  A    between atoms: _386  and  _387
REMARK  157  A    between atoms: _387  and  _388
REMARK  158  A    between atoms: _393  and  _395
REMARK  159  A    between atoms: _395  and  _396
REMARK  160  A    between atoms: _395  and  _398
REMARK  161  A    between atoms: _398  and  _399
REMARK  162  A    between atoms: _405  and  _407
REMARK  163  A    between atoms: _407  and  _408
REMARK  164  A    between atoms: _407  and  _410
REMARK  165  A    between atoms: _410  and  _411
REMARK  166  A    between atoms: _414  and  _416
REMARK  167  A    between atoms: _416  and  _417
REMARK  168  A    between atoms: _416  and  _419
REMARK  169  A    between atoms: _419  and  _420
REMARK  170  A    between atoms: _423  and  _425
REMARK  171  A    between atoms: _425  and  _426
REMARK  172  A    between atoms: _425  and  _428
REMARK  173  A    between atoms: _428  and  _429
REMARK  174  A    between atoms: _429  and  _430
REMARK  175  A    between atoms: _430  and  _431
REMARK  176  A    between atoms: _440  and  _442
REMARK  177  A    between atoms: _442  and  _443
REMARK  178  A    between atoms: _442  and  _445
REMARK  179  A    between atoms: _445  and  _446
REMARK  180  A    between atoms: _451  and  _453
REMARK  181  A    between atoms: _453  and  _454
REMARK  182  A    between atoms: _457  and  _459
REMARK  183  A    between atoms: _459  and  _460
REMARK  184  A    between atoms: _459  and  _462
REMARK  185  A    between atoms: _462  and  _463
REMARK  186  A    between atoms: _466  and  _468
REMARK  187  A    between atoms: _468  and  _469
REMARK  188  A    between atoms: _472  and  _474
REMARK  189  A    between atoms: _474  and  _475
REMARK  190  A    between atoms: _474  and  _477
REMARK  191  A    between atoms: _477  and  _478
REMARK  192  A    between atoms: _483  and  _484
REMARK  193  A    between atoms: _486  and  _488
REMARK  194  A    between atoms: _488  and  _489
REMARK  195  A    between atoms: _492  and  _494
REMARK  196  A    between atoms: _494  and  _495
REMARK  197  A    between atoms: _494  and  _497
REMARK  198  A    between atoms: _497  and  _498
REMARK  199  A    between atoms: _501  and  _503
REMARK  200  A    between atoms: _503  and  _504
REMARK  201  A    between atoms: _503  and  _506
REMARK  202  A    between atoms: _506  and  _507
REMARK  203  A    between atoms: _507  and  _508
REMARK  204  A    between atoms: _508  and  _509
REMARK  205  A    between atoms: _509  and  _510
REMARK  206  A    between atoms: _514  and  _516
REMARK  207  A    between atoms: _516  and  _517
REMARK  208  A    between atoms: _516  and  _519
REMARK  209  A    between atoms: _519  and  _520
REMARK  210  A    between atoms: _525  and  _526
REMARK  211  A    between atoms: _528  and  _530
REMARK  212  A    between atoms: _530  and  _531
REMARK  213  A    between atoms: _530  and  _533
REMARK  214  A    between atoms: _533  and  _534
REMARK  215  A    between atoms: _539  and  _541
REMARK  216  A    between atoms: _541  and  _542
REMARK  217  A    between atoms: _544  and  _546
REMARK  218  A    between atoms: _546  and  _547
REMARK  219  A    between atoms: _546  and  _549
REMARK  220  A    between atoms: _549  and  _550
REMARK  221  A    between atoms: _553  and  _555
REMARK  222  A    between atoms: _555  and  _556
REMARK  223  A    between atoms: _555  and  _558
REMARK  224  A    between atoms: _561  and  _563
REMARK  225  A    between atoms: _563  and  _564
REMARK  226  A    between atoms: _563  and  _566
REMARK  227  A    between atoms: _566  and  _567
REMARK  228  A    between atoms: _570  and  _572
REMARK  229  A    between atoms: _572  and  _573
REMARK  230  A    between atoms: _572  and  _575
REMARK  231  A    between atoms: _575  and  _576
REMARK  232  A    between atoms: _582  and  _584
REMARK  233  A    between atoms: _584  and  _585
REMARK  234  A    between atoms: _584  and  _587
REMARK  235  A    between atoms: _587  and  _588
REMARK  236  A    between atoms: _588  and  _589
REMARK  237  A    between atoms: _594  and  _596
REMARK  238  A    between atoms: _596  and  _597
REMARK  239  A    between atoms: _600  and  _602
REMARK  240  A    between atoms: _602  and  _603
REMARK  241  A    between atoms: _606  and  _608
REMARK  242  A    between atoms: _608  and  _609
REMARK  243  A    between atoms: _608  and  _611
REMARK  244  A    between atoms: _611  and  _612
REMARK  245  A    between atoms: _615  and  _617
REMARK  246  A    between atoms: _617  and  _618
REMARK  247  A    between atoms: _617  and  _620
REMARK  248  A    between atoms: _620  and  _621
REMARK  249  A    between atoms: _626  and  _627
REMARK  250  A    between atoms: _629  and  _631
REMARK  251  A    between atoms: _631  and  _632
REMARK  252  A    between atoms: _635  and  _637
REMARK  253  A    between atoms: _637  and  _638
REMARK  254  A    between atoms: _642  and  _643
REMARK  255  A    between atoms: _648  and  _650
REMARK  256  A    between atoms: _650  and  _651
REMARK  257  A    between atoms: _650  and  _653
REMARK  258  A    between atoms: _653  and  _654
REMARK  259  A    between atoms: _660  and  _662
REMARK  260  A    between atoms: _662  and  _663
REMARK  261  A    between atoms: _662  and  _665
REMARK  262  A    between atoms: _665  and  _666
REMARK  263  A    between atoms: _669  and  _671
REMARK  264  A    between atoms: _671  and  _672
REMARK  265  A    between atoms: _671  and  _674
REMARK  266  A    between atoms: _674  and  _675
REMARK  267  A    between atoms: _681  and  _683
REMARK  268  A    between atoms: _683  and  _684
REMARK  269  A    between atoms: _683  and  _686
REMARK  270  A    between atoms: _686  and  _687
REMARK  271  A    between atoms: _692  and  _693
REMARK  272  A    between atoms: _695  and  _697
REMARK  273  A    between atoms: _697  and  _698
REMARK  274  A    between atoms: _697  and  _700
REMARK  275  A    between atoms: _700  and  _701
REMARK  276  A    between atoms: _706  and  _707
REMARK  277  A    between atoms: _709  and  _711
REMARK  278  A    between atoms: _711  and  _712
REMARK  279  A    between atoms: _711  and  _714
REMARK  280  A    between atoms: _714  and  _715
REMARK  281  A    between atoms: _715  and  _716
REMARK  282  A    between atoms: _716  and  _717
REMARK  283  A    between atoms: _717  and  _718
REMARK  284  A    between atoms: _722  and  _724
REMARK  285  A    between atoms: _724  and  _725
REMARK  286  A    between atoms: _724  and  _727
REMARK                            x       y       z     vdW  Elec       q    Type
REMARK                         _______ _______ _______ _____ _____    ______ ____
ROOT
ATOM      1  CB  PHE A   1      -1.610   2.098  13.317  0.00  0.00    +0.051 C 
ENDROOT
BRANCH   1   2
ATOM      2  CG  PHE A   1      -0.183   2.454  13.668  0.00  0.00    -0.020 A 
ATOM      3  CD2 PHE A   1       0.162   3.780  13.896  0.00  0.00    -0.004 A 
ATOM      4  CE2 PHE A   1       1.484   4.138  14.214  0.00  0.00    -0.000 A 
ATOM      5  CZ  PHE A   1       2.455   3.134  14.291  0.00  0.00    -0.000 A 
ATOM      6  CE1 PHE A   1       2.109   1.800  14.068  0.00  0.00    -0.000 A 
ATOM      7  CD1 PHE A   1       0.794   1.462  13.743  0.00  0.00    -0.004 A 
ENDBRANCH   1   2
BRANCH   1   8
ATOM      8  CA  PHE A   1      -1.938   2.366  11.858  0.00  0.00    +0.137 C 
BRANCH   8   9
ATOM      9  N   PHE A   1      -3.312   1.931  11.607  0.00  0.00    -0.239 NA
ATOM     10  H   PHE A   1      -3.905   1.623  12.404  0.00  0.00    +0.142 HD
ENDBRANCH   8   9
BRANCH   8  11
ATOM     11  C   PHE A   1      -0.849   1.742  10.967  0.00  0.00    +0.224 C 
ATOM     12  O   PHE A   1       0.063   2.433  10.515  0.00  0.00    -0.287 OA
ENDBRANCH   8  11
ENDBRANCH   1   8
TORSDOF 4
REMARK  Name = ../refined-set-2016/2euk/2euk_pocket.pdb
REMARK  286 active torsions:
REMARK  status: ('A' for Active; 'I' for Inactive)
REMARK    1  A    between atoms: _1  and  _5
REMARK    2  A    between atoms: _5  and  _6
REMARK    3  A    between atoms: _5  and  _8
REMARK    4  A    between atoms: _8  and  _9
REMARK    5  A    between atoms: _12  and  _14
REMARK    6  A    between atoms: _14  and  _15
REMARK    7  A    between atoms: _14  and  _17
REMARK    8  A    between atoms: _17  and  _18
REMARK    9  A    between atoms: _23  and  _25
REMARK   10  A    between atoms: _25  and  _26
REMARK   11  A    between atoms: _25  and  _28
REMARK   12  A    between atoms: _28  and  _29
REMARK   13  A    between atoms: _33  and  _34
REMARK   14  A    between atoms: _40  and  _41
REMARK   15  A    between atoms: _46  and  _48
REMARK   16  A    between atoms: _48  and  _49
REMARK   17  A    between atoms: _48  and  _51
REMARK   18  A    between atoms: _51  and  _52
REMARK   19  A    between atoms: _58  and  _60
REMARK   20  A    between atoms: _60  and  _61
REMARK   21  A    between atoms: _60  and  _63
REMARK   22  A    between atoms: _63  and  _64
REMARK   23  A    between atoms: _70  and  _72
REMARK   24  A    between atoms: _72  and  _73
REMARK   25  A    between atoms: _72  and  _75
REMARK   26  A    between atoms: _75  and  _76
REMARK   27  A    between atoms: _79  and  _81
REMARK   28  A    between atoms: _81  and  _82
REMARK   29  A    between atoms: _81  and  _84
REMARK   30  A    between atoms: _86  and  _88
REMARK   31  A    between atoms: _88  and  _89
REMARK   32  A    between atoms: _88  and  _91
REMARK   33  A    between atoms: _91  and  _92
REMARK   34  A    between atoms: _95  and  _97
REMARK   35  A    between atoms: _97  and  _98
REMARK   36  A    between atoms: _97  and  _100
REMARK   37  A    between atoms: _100  and  _101
REMARK   38  A    between atoms: _103  and  _105
REMARK   39  A    between atoms: _105  and  _106
REMARK   40  A    between atoms: _105  and  _108
REMARK   41  A    between atoms: _111  and  _113
REMARK   42  A    between atoms: _113  and  _114
REMARK   43  A    between atoms: _113  and  _116
REMARK   44  A    between atoms: _116  and  _117
REMARK   45  A    between atoms: _123  and  _125
REMARK   46  A    between atoms: _125  and  _126
REMARK   47  A    between atoms: _125  and  _128
REMARK   48  A    between atoms: _128  and  _129
REMARK   49  A    between atoms: _133  and  _134
REMARK   50  A    between atoms: _139  and  _141
REMARK   51  A    between atoms: _141  and  _142
REMARK   52  A    between atoms: _141  and  _144
REMARK   53  A    between atoms: _144  and  _145
REMARK   54  A    between atoms: _148  and  _150
REMARK   55  A    between atoms: _150  and  _151
REMARK   56  A    between atoms: _150  and  _153
REMARK   57  A    between atoms: _153  and  _154
REMARK   58  A    between atoms: _154  and  _155
REMARK   59  A    between atoms: _155  and  _156
REMARK   60  A    between atoms: _156  and  _157
REMARK   61  A    between atoms: _161  and  _163
REMARK   62  A    between atoms: _163  and  _164
REMARK   63  A    between atoms: _167  and  _169
REMARK   64  A    between atoms: _169  and  _170
REMARK   65  A    between atoms: _169  and  _172
REMARK   66  A    between atoms: _172  and  _173
REMARK   67  A    between atoms: _176  and  _178
REMARK   68  A    between atoms: _178  and  _179
REMARK   69  A    between atoms: _178  and  _181
REMARK   70  A    between atoms: _181  and  _182
REMARK   71  A    between atoms: _185  and  _187
REMARK   72  A    between atoms: _187  and  _188
REMARK   73  A    between atoms: _190  and  _192
REMARK   74  A    between atoms: _192  and  _193
REMARK   75  A    between atoms: _192  and  _195
REMARK   76  A    between atoms: _195  and  _196
REMARK   77  A    between atoms: _201  and  _203
REMARK   78  A    between atoms: _203  and  _204
REMARK   79  A    between atoms: _203  and  _206
REMARK   80  A    between atoms: _206  and  _207
REMARK   81  A    between atoms: _210  and  _212
REMARK   82  A    between atoms: _212  and  _213
REMARK   83  A    between atoms: _212  and  _215
REMARK   84  A    between atoms: _215  and  _216
REMARK   85  A    between atoms: _216  and  _217
REMARK   86  A    between atoms: _217  and  _218
REMARK   87  A    between atoms: _218  and  _219
REMARK   88  A    between atoms: _223  and  _225
REMARK   89  A    between atoms: _225  and  _226
REMARK   90  A    between atoms: _225  and  _228
REMARK   91  A    between atoms: _228  and  _229
REMARK   92  A    between atoms: _229  and  _230
REMARK   93  A    between atoms: _230  and  _231
REMARK   94  A    between atoms: _231  and  _232
REMARK   95  A    between atoms: _236  and  _238
REMARK   96  A    between atoms: _238  and  _239
REMARK   97  A    between atoms: _241  and  _243
REMARK   98  A    between atoms: _243  and  _244
REMARK   99  A    between atoms: _243  and  _246
REMARK  100  A    between atoms: _246  and  _247
REMARK  101  A    between atoms: _250  and  _252
REMARK  102  A    between atoms: _252  and  _253
REMARK  103  A    between atoms: _256  and  _258
REMARK  104  A    between atoms: _258  and  _259
REMARK  105  A    between atoms: _258  and  _261
REMARK  106  A    between atoms: _261  and  _262
REMARK  107  A    between atoms: _265  and  _267
REMARK  108  A    between atoms: _267  and  _268
REMARK  109  A    between atoms: _267  and  _270
REMARK  110  A    between atoms: _270  and  _271
REMARK  111  A    between atoms: _271  and  _272
REMARK  112  A    between atoms: _274  and  _276
REMARK  113  A    between atoms: _276  and  _277
REMARK  114  A    between atoms: _276  and  _279
REMARK  115  A    between atoms: _279  and  _280
REMARK  116  A    between atoms: _290  and  _292
REMARK  117  A    between atoms: _292  and  _293
REMARK  118  A    between atoms: _292  and  _295
REMARK  119  A    between atoms: _295  and  _296
REMARK  120  A    between atoms: _299  and  _301
REMARK  121  A    between atoms: _301  and  _302
REMARK  122  A    between atoms: _301  and  _304
REMARK  123  A    between atoms: _304  and  _305
REMARK  124  A    between atoms: _305  and  _306
REMARK  125  A    between atoms: _306  and  _307
REMARK  126  A    between atoms: _307  and  _308
REMARK  127  A    between atoms: _312  and  _314
REMARK  128  A    between atoms: _314  and  _315
REMARK  129  A    between atoms: _314  and  _317
REMARK  130  A    between atoms: _317  and  _318
REMARK  131  A    between atoms: _318  and  _319
REMARK  132  A    between atoms: _319  and  _320
REMARK  133  A    between atoms: _329  and  _331
REMARK  134  A    between atoms: _331  and  _332
REMARK  135  A    between atoms: _334  and  _336
REMARK  136  A    between atoms: _336  and  _337
REMARK  137  A    between atoms: _336  and  _339
REMARK  138  A    between atoms: _339  and  _340
REMARK  139  A    between atoms: _343  and  _345
REMARK  140  A    between atoms: _345  and  _346
REMARK  141  A    between atoms: _345  and  _348
REMARK  142  A    between atoms: _348  and  _349
REMARK  143  A    between atoms: _349  and  _350
REMARK  144  A    between atoms: _350  and  _351
REMARK  145  A    between atoms: _360  and  _362
REMARK  146  A    between atoms: _362  and  _363
REMARK  147  A    between atoms: _362  and  _365
REMARK  148  A    between atoms: _365  and  _366
REMARK  149  A    between atoms: _372  and  _374
REMARK  150  A    between atoms: _374  and  _375
REMARK  151  A    between atoms: _374  and  _377
REMARK  152  A    between atoms: _377  and  _378
REMARK  153  A    between atoms: _381  and  _383
REMARK  154  A    between atoms: _383  and  _384
REMARK  155  A    between atoms: _383  and  _386
REMARK  156  A    between atoms: _386  and  _387
REMARK  157  A    between atoms: _387  and  _388
REMARK  158  A    between atoms: _393  and  _395
REMARK  159  A    between atoms: _395  and  _396
REMARK  160  A    between atoms: _395  and  _398
REMARK  161  A    between atoms: _398  and  _399
REMARK  162  A    between atoms: _405  and  _407
REMARK  163  A    between atoms: _407  and  _408
REMARK  164  A    between atoms: _407  and  _410
REMARK  165  A    between atoms: _410  and  _411
REMARK  166  A    between atoms: _414  and  _416
REMARK  167  A    between atoms: _416  and  _417
REMARK  168  A    between atoms: _416  and  _419
REMARK  169  A    between atoms: _419  and  _420
REMARK  170  A    between atoms: _423  and  _425
REMARK  171  A    between atoms: _425  and  _426
REMARK  172  A    between atoms: _425  and  _428
REMARK  173  A    between atoms: _428  and  _429
REMARK  174  A    between atoms: _429  and  _430
REMARK  175  A    between atoms: _430  and  _431
REMARK  176  A    between atoms: _440  and  _442
REMARK  177  A    between atoms: _442  and  _443
REMARK  178  A    between atoms: _442  and  _445
REMARK  179  A    between atoms: _445  and  _446
REMARK  180  A    between atoms: _451  and  _453
REMARK  181  A    between atoms: _453  and  _454
REMARK  182  A    between atoms: _457  and  _459
REMARK  183  A    between atoms: _459  and  _460
REMARK  184  A    between atoms: _459  and  _462
REMARK  185  A    between atoms: _462  and  _463
REMARK  186  A    between atoms: _466  and  _468
REMARK  187  A    between atoms: _468  and  _469
REMARK  188  A    between atoms: _472  and  _474
REMARK  189  A    between atoms: _474  and  _475
REMARK  190  A    between atoms: _474  and  _477
REMARK  191  A    between atoms: _477  and  _478
REMARK  192  A    between atoms: _483  and  _484
REMARK  193  A    between atoms: _486  and  _488
REMARK  194  A    between atoms: _488  and  _489
REMARK  195  A    between atoms: _492  and  _494
REMARK  196  A    between atoms: _494  and  _495
REMARK  197  A    between atoms: _494  and  _497
REMARK  198  A    between atoms: _497  and  _498
REMARK  199  A    between atoms: _501  and  _503
REMARK  200  A    between atoms: _503  and  _504
REMARK  201  A    between atoms: _503  and  _506
REMARK  202  A    between atoms: _506  and  _507
REMARK  203  A    between atoms: _507  and  _508
REMARK  204  A    between atoms: _508  and  _509
REMARK  205  A    between atoms: _509  and  _510
REMARK  206  A    between atoms: _514  and  _516
REMARK  207  A    between atoms: _516  and  _517
REMARK  208  A    between atoms: _516  and  _519
REMARK  209  A    between atoms: _519  and  _520
REMARK  210  A    between atoms: _525  and  _526
REMARK  211  A    between atoms: _528  and  _530
REMARK  212  A    between atoms: _530  and  _531
REMARK  213  A    between atoms: _530  and  _533
REMARK  214  A    between atoms: _533  and  _534
REMARK  215  A    between atoms: _539  and  _541
REMARK  216  A    between atoms: _541  and  _542
REMARK  217  A    between atoms: _544  and  _546
REMARK  218  A    between atoms: _546  and  _547
REMARK  219  A    between atoms: _546  and  _549
REMARK  220  A    between atoms: _549  and  _550
REMARK  221  A    between atoms: _553  and  _555
REMARK  222  A    between atoms: _555  and  _556
REMARK  223  A    between atoms: _555  and  _558
REMARK  224  A    between atoms: _561  and  _563
REMARK  225  A    between atoms: _563  and  _564
REMARK  226  A    between atoms: _563  and  _566
REMARK  227  A    between atoms: _566  and  _567
REMARK  228  A    between atoms: _570  and  _572
REMARK  229  A    between atoms: _572  and  _573
REMARK  230  A    between atoms: _572  and  _575
REMARK  231  A    between atoms: _575  and  _576
REMARK  232  A    between atoms: _582  and  _584
REMARK  233  A    between atoms: _584  and  _585
REMARK  234  A    between atoms: _584  and  _587
REMARK  235  A    between atoms: _587  and  _588
REMARK  236  A    between atoms: _588  and  _589
REMARK  237  A    between atoms: _594  and  _596
REMARK  238  A    between atoms: _596  and  _597
REMARK  239  A    between atoms: _600  and  _602
REMARK  240  A    between atoms: _602  and  _603
REMARK  241  A    between atoms: _606  and  _608
REMARK  242  A    between atoms: _608  and  _609
REMARK  243  A    between atoms: _608  and  _611
REMARK  244  A    between atoms: _611  and  _612
REMARK  245  A    between atoms: _615  and  _617
REMARK  246  A    between atoms: _617  and  _618
REMARK  247  A    between atoms: _617  and  _620
REMARK  248  A    between atoms: _620  and  _621
REMARK  249  A    between atoms: _626  and  _627
REMARK  250  A    between atoms: _629  and  _631
REMARK  251  A    between atoms: _631  and  _632
REMARK  252  A    between atoms: _635  and  _637
REMARK  253  A    between atoms: _637  and  _638
REMARK  254  A    between atoms: _642  and  _643
REMARK  255  A    between atoms: _648  and  _650
REMARK  256  A    between atoms: _650  and  _651
REMARK  257  A    between atoms: _650  and  _653
REMARK  258  A    between atoms: _653  and  _654
REMARK  259  A    between atoms: _660  and  _662
REMARK  260  A    between atoms: _662  and  _663
REMARK  261  A    between atoms: _662  and  _665
REMARK  262  A    between atoms: _665  and  _666
REMARK  263  A    between atoms: _669  and  _671
REMARK  264  A    between atoms: _671  and  _672
REMARK  265  A    between atoms: _671  and  _674
REMARK  266  A    between atoms: _674  and  _675
REMARK  267  A    between atoms: _681  and  _683
REMARK  268  A    between atoms: _683  and  _684
REMARK  269  A    between atoms: _683  and  _686
REMARK  270  A    between atoms: _686  and  _687
REMARK  271  A    between atoms: _692  and  _693
REMARK  272  A    between atoms: _695  and  _697
REMARK  273  A    between atoms: _697  and  _698
REMARK  274  A    between atoms: _697  and  _700
REMARK  275  A    between atoms: _700  and  _701
REMARK  276  A    between atoms: _706  and  _707
REMARK  277  A    between atoms: _709  and  _711
REMARK  278  A    between atoms: _711  and  _712
REMARK  279  A    between atoms: _711  and  _714
REMARK  280  A    between atoms: _714  and  _715
REMARK  281  A    between atoms: _715  and  _716
REMARK  282  A    between atoms: _716  and  _717
REMARK  283  A    between atoms: _717  and  _718
REMARK  284  A    between atoms: _722  and  _724
REMARK  285  A    between atoms: _724  and  _725
REMARK  286  A    between atoms: _724  and  _727
REMARK                            x       y       z     vdW  Elec       q    Type
REMARK                         _______ _______ _______ _____ _____    ______ ____
ROOT
ATOM      1  CG  TYR A   1       4.416   1.770  11.374  0.00  0.00    -0.020 A 
ATOM      2  CD2 TYR A   1       5.254   2.757  11.910  0.00  0.00    -0.001 A 
ATOM      3  CE2 TYR A   1       6.242   2.431  12.800  0.00  0.00    +0.036 A 
ATOM      4  CZ  TYR A   1       6.397   1.107  13.183  0.00  0.00    +0.134 A 
ATOM      5  CE1 TYR A   1       5.578   0.097  12.702  0.00  0.00    +0.036 A 
ATOM      6  CD1 TYR A   1       4.601   0.442  11.774  0.00  0.00    -0.001 A 
ENDROOT
BRANCH   4   7
ATOM      7  OH  TYR A   1       7.380   0.781  14.047  0.00  0.00    -0.506 OA
ATOM      8  HH  TYR A   1       7.997   0.138  13.616  0.00  0.00    +0.292 HD
ENDBRANCH   4   7
BRANCH   1   9
ATOM      9  CB  TYR A   1       3.293   2.155  10.434  0.00  0.00    +0.051 C 
BRANCH   9  10
ATOM     10  CA  TYR A   1       3.696   2.869   9.142  0.00  0.00    +0.137 C 
BRANCH  10  11
ATOM     11  N   TYR A   1       2.494   3.283   8.421  0.00  0.00    -0.239 NA
ATOM     12  H   TYR A   1       1.553   3.110   8.829  0.00  0.00    +0.142 HD
ENDBRANCH  10  11
BRANCH  10  13
ATOM     13  C   TYR A   1       4.558   1.934   8.282  0.00  0.00    +0.224 C 
ATOM     14  O   TYR A   1       5.757   2.160   8.073  0.00  0.00    -0.287 OA
ENDBRANCH  10  13
ENDBRANCH   9  10
ENDBRANCH   1   9
TORSDOF 5
REMARK  Name = ../refined-set-2016/2euk/2euk_pocket.pdb
REMARK  286 active torsions:
REMARK  status: ('A' for Active; 'I' for Inactive)
REMARK    1  A    between atoms: _1  and  _5
REMARK    2  A    between atoms: _5  and  _6
REMARK    3  A    between atoms: _5  and  _8
REMARK    4  A    between atoms: _8  and  _9
REMARK    5  A    between atoms: _12  and  _14
REMARK    6  A    between atoms: _14  and  _15
REMARK    7  A    between atoms: _14  and  _17
REMARK    8  A    between atoms: _17  and  _18
REMARK    9  A    between atoms: _23  and  _25
REMARK   10  A    between atoms: _25  and  _26
REMARK   11  A    between atoms: _25  and  _28
REMARK   12  A    between atoms: _28  and  _29
REMARK   13  A    between atoms: _33  and  _34
REMARK   14  A    between atoms: _40  and  _41
REMARK   15  A    between atoms: _46  and  _48
REMARK   16  A    between atoms: _48  and  _49
REMARK   17  A    between atoms: _48  and  _51
REMARK   18  A    between atoms: _51  and  _52
REMARK   19  A    between atoms: _58  and  _60
REMARK   20  A    between atoms: _60  and  _61
REMARK   21  A    between atoms: _60  and  _63
REMARK   22  A    between atoms: _63  and  _64
REMARK   23  A    between atoms: _70  and  _72
REMARK   24  A    between atoms: _72  and  _73
REMARK   25  A    between atoms: _72  and  _75
REMARK   26  A    between atoms: _75  and  _76
REMARK   27  A    between atoms: _79  and  _81
REMARK   28  A    between atoms: _81  and  _82
REMARK   29  A    between atoms: _81  and  _84
REMARK   30  A    between atoms: _86  and  _88
REMARK   31  A    between atoms: _88  and  _89
REMARK   32  A    between atoms: _88  and  _91
REMARK   33  A    between atoms: _91  and  _92
REMARK   34  A    between atoms: _95  and  _97
REMARK   35  A    between atoms: _97  and  _98
REMARK   36  A    between atoms: _97  and  _100
REMARK   37  A    between atoms: _100  and  _101
REMARK   38  A    between atoms: _103  and  _105
REMARK   39  A    between atoms: _105  and  _106
REMARK   40  A    between atoms: _105  and  _108
REMARK   41  A    between atoms: _111  and  _113
REMARK   42  A    between atoms: _113  and  _114
REMARK   43  A    between atoms: _113  and  _116
REMARK   44  A    between atoms: _116  and  _117
REMARK   45  A    between atoms: _123  and  _125
REMARK   46  A    between atoms: _125  and  _126
REMARK   47  A    between atoms: _125  and  _128
REMARK   48  A    between atoms: _128  and  _129
REMARK   49  A    between atoms: _133  and  _134
REMARK   50  A    between atoms: _139  and  _141
REMARK   51  A    between atoms: _141  and  _142
REMARK   52  A    between atoms: _141  and  _144
REMARK   53  A    between atoms: _144  and  _145
REMARK   54  A    between atoms: _148  and  _150
REMARK   55  A    between atoms: _150  and  _151
REMARK   56  A    between atoms: _150  and  _153
REMARK   57  A    between atoms: _153  and  _154
REMARK   58  A    between atoms: _154  and  _155
REMARK   59  A    between atoms: _155  and  _156
REMARK   60  A    between atoms: _156  and  _157
REMARK   61  A    between atoms: _161  and  _163
REMARK   62  A    between atoms: _163  and  _164
REMARK   63  A    between atoms: _167  and  _169
REMARK   64  A    between atoms: _169  and  _170
REMARK   65  A    between atoms: _169  and  _172
REMARK   66  A    between atoms: _172  and  _173
REMARK   67  A    between atoms: _176  and  _178
REMARK   68  A    between atoms: _178  and  _179
REMARK   69  A    between atoms: _178  and  _181
REMARK   70  A    between atoms: _181  and  _182
REMARK   71  A    between atoms: _185  and  _187
REMARK   72  A    between atoms: _187  and  _188
REMARK   73  A    between atoms: _190  and  _192
REMARK   74  A    between atoms: _192  and  _193
REMARK   75  A    between atoms: _192  and  _195
REMARK   76  A    between atoms: _195  and  _196
REMARK   77  A    between atoms: _201  and  _203
REMARK   78  A    between atoms: _203  and  _204
REMARK   79  A    between atoms: _203  and  _206
REMARK   80  A    between atoms: _206  and  _207
REMARK   81  A    between atoms: _210  and  _212
REMARK   82  A    between atoms: _212  and  _213
REMARK   83  A    between atoms: _212  and  _215
REMARK   84  A    between atoms: _215  and  _216
REMARK   85  A    between atoms: _216  and  _217
REMARK   86  A    between atoms: _217  and  _218
REMARK   87  A    between atoms: _218  and  _219
REMARK   88  A    between atoms: _223  and  _225
REMARK   89  A    between atoms: _225  and  _226
REMARK   90  A    between atoms: _225  and  _228
REMARK   91  A    between atoms: _228  and  _229
REMARK   92  A    between atoms: _229  and  _230
REMARK   93  A    between atoms: _230  and  _231
REMARK   94  A    between atoms: _231  and  _232
REMARK   95  A    between atoms: _236  and  _238
REMARK   96  A    between atoms: _238  and  _239
REMARK   97  A    between atoms: _241  and  _243
REMARK   98  A    between atoms: _243  and  _244
REMARK   99  A    between atoms: _243  and  _246
REMARK  100  A    between atoms: _246  and  _247
REMARK  101  A    between atoms: _250  and  _252
REMARK  102  A    between atoms: _252  and  _253
REMARK  103  A    between atoms: _256  and  _258
REMARK  104  A    between atoms: _258  and  _259
REMARK  105  A    between atoms: _258  and  _261
REMARK  106  A    between atoms: _261  and  _262
REMARK  107  A    between atoms: _265  and  _267
REMARK  108  A    between atoms: _267  and  _268
REMARK  109  A    between atoms: _267  and  _270
REMARK  110  A    between atoms: _270  and  _271
REMARK  111  A    between atoms: _271  and  _272
REMARK  112  A    between atoms: _274  and  _276
REMARK  113  A    between atoms: _276  and  _277
REMARK  114  A    between atoms: _276  and  _279
REMARK  115  A    between atoms: _279  and  _280
REMARK  116  A    between atoms: _290  and  _292
REMARK  117  A    between atoms: _292  and  _293
REMARK  118  A    between atoms: _292  and  _295
REMARK  119  A    between atoms: _295  and  _296
REMARK  120  A    between atoms: _299  and  _301
REMARK  121  A    between atoms: _301  and  _302
REMARK  122  A    between atoms: _301  and  _304
REMARK  123  A    between atoms: _304  and  _305
REMARK  124  A    between atoms: _305  and  _306
REMARK  125  A    between atoms: _306  and  _307
REMARK  126  A    between atoms: _307  and  _308
REMARK  127  A    between atoms: _312  and  _314
REMARK  128  A    between atoms: _314  and  _315
REMARK  129  A    between atoms: _314  and  _317
REMARK  130  A    between atoms: _317  and  _318
REMARK  131  A    between atoms: _318  and  _319
REMARK  132  A    between atoms: _319  and  _320
REMARK  133  A    between atoms: _329  and  _331
REMARK  134  A    between atoms: _331  and  _332
REMARK  135  A    between atoms: _334  and  _336
REMARK  136  A    between atoms: _336  and  _337
REMARK  137  A    between atoms: _336  and  _339
REMARK  138  A    between atoms: _339  and  _340
REMARK  139  A    between atoms: _343  and  _345
REMARK  140  A    between atoms: _345  and  _346
REMARK  141  A    between atoms: _345  and  _348
REMARK  142  A    between atoms: _348  and  _349
REMARK  143  A    between atoms: _349  and  _350
REMARK  144  A    between atoms: _350  and  _351
REMARK  145  A    between atoms: _360  and  _362
REMARK  146  A    between atoms: _362  and  _363
REMARK  147  A    between atoms: _362  and  _365
REMARK  148  A    between atoms: _365  and  _366
REMARK  149  A    between atoms: _372  and  _374
REMARK  150  A    between atoms: _374  and  _375
REMARK  151  A    between atoms: _374  and  _377
REMARK  152  A    between atoms: _377  and  _378
REMARK  153  A    between atoms: _381  and  _383
REMARK  154  A    between atoms: _383  and  _384
REMARK  155  A    between atoms: _383  and  _386
REMARK  156  A    between atoms: _386  and  _387
REMARK  157  A    between atoms: _387  and  _388
REMARK  158  A    between atoms: _393  and  _395
REMARK  159  A    between atoms: _395  and  _396
REMARK  160  A    between atoms: _395  and  _398
REMARK  161  A    between atoms: _398  and  _399
REMARK  162  A    between atoms: _405  and  _407
REMARK  163  A    between atoms: _407  and  _408
REMARK  164  A    between atoms: _407  and  _410
REMARK  165  A    between atoms: _410  and  _411
REMARK  166  A    between atoms: _414  and  _416
REMARK  167  A    between atoms: _416  and  _417
REMARK  168  A    between atoms: _416  and  _419
REMARK  169  A    between atoms: _419  and  _420
REMARK  170  A    between atoms: _423  and  _425
REMARK  171  A    between atoms: _425  and  _426
REMARK  172  A    between atoms: _425  and  _428
REMARK  173  A    between atoms: _428  and  _429
REMARK  174  A    between atoms: _429  and  _430
REMARK  175  A    between atoms: _430  and  _431
REMARK  176  A    between atoms: _440  and  _442
REMARK  177  A    between atoms: _442  and  _443
REMARK  178  A    between atoms: _442  and  _445
REMARK  179  A    between atoms: _445  and  _446
REMARK  180  A    between atoms: _451  and  _453
REMARK  181  A    between atoms: _453  and  _454
REMARK  182  A    between atoms: _457  and  _459
REMARK  183  A    between atoms: _459  and  _460
REMARK  184  A    between atoms: _459  and  _462
REMARK  185  A    between atoms: _462  and  _463
REMARK  186  A    between atoms: _466  and  _468
REMARK  187  A    between atoms: _468  and  _469
REMARK  188  A    between atoms: _472  and  _474
REMARK  189  A    between atoms: _474  and  _475
REMARK  190  A    between atoms: _474  and  _477
REMARK  191  A    between atoms: _477  and  _478
REMARK  192  A    between atoms: _483  and  _484
REMARK  193  A    between atoms: _486  and  _488
REMARK  194  A    between atoms: _488  and  _489
REMARK  195  A    between atoms: _492  and  _494
REMARK  196  A    between atoms: _494  and  _495
REMARK  197  A    between atoms: _494  and  _497
REMARK  198  A    between atoms: _497  and  _498
REMARK  199  A    between atoms: _501  and  _503
REMARK  200  A    between atoms: _503  and  _504
REMARK  201  A    between atoms: _503  and  _506
REMARK  202  A    between atoms: _506  and  _507
REMARK  203  A    between atoms: _507  and  _508
REMARK  204  A    between atoms: _508  and  _509
REMARK  205  A    between atoms: _509  and  _510
REMARK  206  A    between atoms: _514  and  _516
REMARK  207  A    between atoms: _516  and  _517
REMARK  208  A    between atoms: _516  and  _519
REMARK  209  A    between atoms: _519  and  _520
REMARK  210  A    between atoms: _525  and  _526
REMARK  211  A    between atoms: _528  and  _530
REMARK  212  A    between atoms: _530  and  _531
REMARK  213  A    between atoms: _530  and  _533
REMARK  214  A    between atoms: _533  and  _534
REMARK  215  A    between atoms: _539  and  _541
REMARK  216  A    between atoms: _541  and  _542
REMARK  217  A    between atoms: _544  and  _546
REMARK  218  A    between atoms: _546  and  _547
REMARK  219  A    between atoms: _546  and  _549
REMARK  220  A    between atoms: _549  and  _550
REMARK  221  A    between atoms: _553  and  _555
REMARK  222  A    between atoms: _555  and  _556
REMARK  223  A    between atoms: _555  and  _558
REMARK  224  A    between atoms: _561  and  _563
REMARK  225  A    between atoms: _563  and  _564
REMARK  226  A    between atoms: _563  and  _566
REMARK  227  A    between atoms: _566  and  _567
REMARK  228  A    between atoms: _570  and  _572
REMARK  229  A    between atoms: _572  and  _573
REMARK  230  A    between atoms: _572  and  _575
REMARK  231  A    between atoms: _575  and  _576
REMARK  232  A    between atoms: _582  and  _584
REMARK  233  A    between atoms: _584  and  _585
REMARK  234  A    between atoms: _584  and  _587
REMARK  235  A    between atoms: _587  and  _588
REMARK  236  A    between atoms: _588  and  _589
REMARK  237  A    between atoms: _594  and  _596
REMARK  238  A    between atoms: _596  and  _597
REMARK  239  A    between atoms: _600  and  _602
REMARK  240  A    between atoms: _602  and  _603
REMARK  241  A    between atoms: _606  and  _608
REMARK  242  A    between atoms: _608  and  _609
REMARK  243  A    between atoms: _608  and  _611
REMARK  244  A    between atoms: _611  and  _612
REMARK  245  A    between atoms: _615  and  _617
REMARK  246  A    between atoms: _617  and  _618
REMARK  247  A    between atoms: _617  and  _620
REMARK  248  A    between atoms: _620  and  _621
REMARK  249  A    between atoms: _626  and  _627
REMARK  250  A    between atoms: _629  and  _631
REMARK  251  A    between atoms: _631  and  _632
REMARK  252  A    between atoms: _635  and  _637
REMARK  253  A    between atoms: _637  and  _638
REMARK  254  A    between atoms: _642  and  _643
REMARK  255  A    between atoms: _648  and  _650
REMARK  256  A    between atoms: _650  and  _651
REMARK  257  A    between atoms: _650  and  _653
REMARK  258  A    between atoms: _653  and  _654
REMARK  259  A    between atoms: _660  and  _662
REMARK  260  A    between atoms: _662  and  _663
REMARK  261  A    between atoms: _662  and  _665
REMARK  262  A    between atoms: _665  and  _666
REMARK  263  A    between atoms: _669  and  _671
REMARK  264  A    between atoms: _671  and  _672
REMARK  265  A    between atoms: _671  and  _674
REMARK  266  A    between atoms: _674  and  _675
REMARK  267  A    between atoms: _681  and  _683
REMARK  268  A    between atoms: _683  and  _684
REMARK  269  A    between atoms: _683  and  _686
REMARK  270  A    between atoms: _686  and  _687
REMARK  271  A    between atoms: _692  and  _693
REMARK  272  A    between atoms: _695  and  _697
REMARK  273  A    between atoms: _697  and  _698
REMARK  274  A    between atoms: _697  and  _700
REMARK  275  A    between atoms: _700  and  _701
REMARK  276  A    between atoms: _706  and  _707
REMARK  277  A    between atoms: _709  and  _711
REMARK  278  A    between atoms: _711  and  _712
REMARK  279  A    between atoms: _711  and  _714
REMARK  280  A    between atoms: _714  and  _715
REMARK  281  A    between atoms: _715  and  _716
REMARK  282  A    between atoms: _716  and  _717
REMARK  283  A    between atoms: _717  and  _718
REMARK  284  A    between atoms: _722  and  _724
REMARK  285  A    between atoms: _724  and  _725
REMARK  286  A    between atoms: _724  and  _727
REMARK                            x       y       z     vdW  Elec       q    Type
REMARK                         _______ _______ _______ _____ _____    ______ ____
ROOT
ATOM      1  CA  LYS A   2      26.591  -7.937  14.626  0.00  0.00    +0.149 C 
ENDROOT
BRANCH   1   3
ATOM      2  C   TYR A   1      26.959  -6.459  12.698  0.00  0.00    +0.239 C 
ATOM      3  N   LYS A   2      27.381  -7.443  13.494  0.00  0.00    -0.297 N 
ATOM      4  H   LYS A   2      28.307  -7.877  13.304  0.00  0.00    +0.150 HD
ATOM      5  O   TYR A   1      25.841  -5.949  12.799  0.00  0.00    -0.274 OA
BRANCH   2   6
ATOM      6  CA  TYR A   1      27.913  -6.038  11.565  0.00  0.00    +0.149 C 
BRANCH   6   7
ATOM      7  N   TYR A   1      27.201  -5.682  10.348  0.00  0.00    -0.238 NA
ATOM      8  H   TYR A   1      27.351  -4.758   9.895  0.00  0.00    +0.142 HD
ENDBRANCH   6   7
BRANCH   6   9
ATOM      9  CB  TYR A   1      28.858  -4.905  11.990  0.00  0.00    +0.053 C 
BRANCH   9  10
ATOM     10  CG  TYR A   1      28.195  -3.716  12.689  0.00  0.00    -0.020 A 
ATOM     11  CD2 TYR A   1      27.970  -3.717  14.062  0.00  0.00    -0.001 A 
ATOM     12  CE2 TYR A   1      27.377  -2.623  14.703  0.00  0.00    +0.036 A 
ATOM     13  CZ  TYR A   1      26.965  -1.528  13.944  0.00  0.00    +0.134 A 
ATOM     14  CE1 TYR A   1      27.185  -1.508  12.586  0.00  0.00    +0.036 A 
ATOM     15  CD1 TYR A   1      27.791  -2.587  11.964  0.00  0.00    -0.001 A 
BRANCH  13  16
ATOM     16  OH  TYR A   1      26.376  -0.417  14.548  0.00  0.00    -0.506 OA
ATOM     17  HH  TYR A   1      26.284  -0.581  15.520  0.00  0.00    +0.292 HD
ENDBRANCH  13  16
ENDBRANCH   9  10
ENDBRANCH   6   9
ENDBRANCH   2   6
ENDBRANCH   1   3
BRANCH   1  18
ATOM     18  C   LYS A   2      27.031  -7.219  15.897  0.00  0.00    +0.241 C 
ATOM     19  N   VAL A   3      26.141  -7.161  16.882  0.00  0.00    -0.295 N 
ATOM     20  H   VAL A   3      25.172  -7.502  16.720  0.00  0.00    +0.150 HD
ATOM     21  O   LYS A   2      28.162  -6.728  15.979  0.00  0.00    -0.273 OA
BRANCH  19  22
ATOM     22  CA  VAL A   3      26.507  -6.626  18.184  0.00  0.00    +0.176 C 
BRANCH  22  23
ATOM     23  C   VAL A   3      26.541  -7.674  19.293  0.00  0.00    +0.382 C 
ATOM     24  OXT VAL A   3      27.407  -7.531  20.136  0.00  0.00    -0.244 OA
ATOM     25  O   VAL A   3      25.834  -8.680  19.385  0.00  0.00    -0.244 OA
ENDBRANCH  22  23
BRANCH  22  26
ATOM     26  CB  VAL A   3      25.641  -5.415  18.597  0.00  0.00    +0.029 C 
ATOM     27  CG2 VAL A   3      24.149  -5.725  18.527  0.00  0.00    +0.002 C 
ATOM     28  CG1 VAL A   3      25.985  -4.195  17.735  0.00  0.00    +0.002 C 
ENDBRANCH  22  26
ENDBRANCH  19  22
ENDBRANCH   1  18
BRANCH   1  29
ATOM     29  CB  LYS A   2      26.726  -9.452  14.831  0.00  0.00    +0.029 C 
BRANCH  29  30
ATOM     30  CG  LYS A   2      26.215 -10.338  13.679  0.00  0.00    +0.000 C 
BRANCH  30  31
ATOM     31  CD  LYS A   2      26.190 -11.785  14.157  0.00  0.00    -0.024 C 
BRANCH  31  32
ATOM     32  CE  LYS A   2      25.840 -12.742  13.025  0.00  0.00    -0.086 C 
BRANCH  32  33
ATOM     33  NZ  LYS A   2      26.571 -12.325  11.768  0.00  0.00    +0.380 N 
ATOM     34  HZ1 LYS A   2      27.596 -12.351  11.940  0.00  0.00    -0.089 HD
ATOM     35  HZ2 LYS A   2      26.286 -11.359  11.507  0.00  0.00    -0.089 HD
ATOM     36  HZ3 LYS A   2      26.331 -12.979  10.996  0.00  0.00    -0.089 HD
ENDBRANCH  32  33
ENDBRANCH  31  32
ENDBRANCH  30  31
ENDBRANCH  29  30
ENDBRANCH   1  29
TORSDOF 15
REMARK  Name = ../refined-set-2016/2euk/2euk_pocket.pdb
REMARK  286 active torsions:
REMARK  status: ('A' for Active; 'I' for Inactive)
REMARK    1  A    between atoms: _1  and  _5
REMARK    2  A    between atoms: _5  and  _6
REMARK    3  A    between atoms: _5  and  _8
REMARK    4  A    between atoms: _8  and  _9
REMARK    5  A    between atoms: _12  and  _14
REMARK    6  A    between atoms: _14  and  _15
REMARK    7  A    between atoms: _14  and  _17
REMARK    8  A    between atoms: _17  and  _18
REMARK    9  A    between atoms: _23  and  _25
REMARK   10  A    between atoms: _25  and  _26
REMARK   11  A    between atoms: _25  and  _28
REMARK   12  A    between atoms: _28  and  _29
REMARK   13  A    between atoms: _33  and  _34
REMARK   14  A    between atoms: _40  and  _41
REMARK   15  A    between atoms: _46  and  _48
REMARK   16  A    between atoms: _48  and  _49
REMARK   17  A    between atoms: _48  and  _51
REMARK   18  A    between atoms: _51  and  _52
REMARK   19  A    between atoms: _58  and  _60
REMARK   20  A    between atoms: _60  and  _61
REMARK   21  A    between atoms: _60  and  _63
REMARK   22  A    between atoms: _63  and  _64
REMARK   23  A    between atoms: _70  and  _72
REMARK   24  A    between atoms: _72  and  _73
REMARK   25  A    between atoms: _72  and  _75
REMARK   26  A    between atoms: _75  and  _76
REMARK   27  A    between atoms: _79  and  _81
REMARK   28  A    between atoms: _81  and  _82
REMARK   29  A    between atoms: _81  and  _84
REMARK   30  A    between atoms: _86  and  _88
REMARK   31  A    between atoms: _88  and  _89
REMARK   32  A    between atoms: _88  and  _91
REMARK   33  A    between atoms: _91  and  _92
REMARK   34  A    between atoms: _95  and  _97
REMARK   35  A    between atoms: _97  and  _98
REMARK   36  A    between atoms: _97  and  _100
REMARK   37  A    between atoms: _100  and  _101
REMARK   38  A    between atoms: _103  and  _105
REMARK   39  A    between atoms: _105  and  _106
REMARK   40  A    between atoms: _105  and  _108
REMARK   41  A    between atoms: _111  and  _113
REMARK   42  A    between atoms: _113  and  _114
REMARK   43  A    between atoms: _113  and  _116
REMARK   44  A    between atoms: _116  and  _117
REMARK   45  A    between atoms: _123  and  _125
REMARK   46  A    between atoms: _125  and  _126
REMARK   47  A    between atoms: _125  and  _128
REMARK   48  A    between atoms: _128  and  _129
REMARK   49  A    between atoms: _133  and  _134
REMARK   50  A    between atoms: _139  and  _141
REMARK   51  A    between atoms: _141  and  _142
REMARK   52  A    between atoms: _141  and  _144
REMARK   53  A    between atoms: _144  and  _145
REMARK   54  A    between atoms: _148  and  _150
REMARK   55  A    between atoms: _150  and  _151
REMARK   56  A    between atoms: _150  and  _153
REMARK   57  A    between atoms: _153  and  _154
REMARK   58  A    between atoms: _154  and  _155
REMARK   59  A    between atoms: _155  and  _156
REMARK   60  A    between atoms: _156  and  _157
REMARK   61  A    between atoms: _161  and  _163
REMARK   62  A    between atoms: _163  and  _164
REMARK   63  A    between atoms: _167  and  _169
REMARK   64  A    between atoms: _169  and  _170
REMARK   65  A    between atoms: _169  and  _172
REMARK   66  A    between atoms: _172  and  _173
REMARK   67  A    between atoms: _176  and  _178
REMARK   68  A    between atoms: _178  and  _179
REMARK   69  A    between atoms: _178  and  _181
REMARK   70  A    between atoms: _181  and  _182
REMARK   71  A    between atoms: _185  and  _187
REMARK   72  A    between atoms: _187  and  _188
REMARK   73  A    between atoms: _190  and  _192
REMARK   74  A    between atoms: _192  and  _193
REMARK   75  A    between atoms: _192  and  _195
REMARK   76  A    between atoms: _195  and  _196
REMARK   77  A    between atoms: _201  and  _203
REMARK   78  A    between atoms: _203  and  _204
REMARK   79  A    between atoms: _203  and  _206
REMARK   80  A    between atoms: _206  and  _207
REMARK   81  A    between atoms: _210  and  _212
REMARK   82  A    between atoms: _212  and  _213
REMARK   83  A    between atoms: _212  and  _215
REMARK   84  A    between atoms: _215  and  _216
REMARK   85  A    between atoms: _216  and  _217
REMARK   86  A    between atoms: _217  and  _218
REMARK   87  A    between atoms: _218  and  _219
REMARK   88  A    between atoms: _223  and  _225
REMARK   89  A    between atoms: _225  and  _226
REMARK   90  A    between atoms: _225  and  _228
REMARK   91  A    between atoms: _228  and  _229
REMARK   92  A    between atoms: _229  and  _230
REMARK   93  A    between atoms: _230  and  _231
REMARK   94  A    between atoms: _231  and  _232
REMARK   95  A    between atoms: _236  and  _238
REMARK   96  A    between atoms: _238  and  _239
REMARK   97  A    between atoms: _241  and  _243
REMARK   98  A    between atoms: _243  and  _244
REMARK   99  A    between atoms: _243  and  _246
REMARK  100  A    between atoms: _246  and  _247
REMARK  101  A    between atoms: _250  and  _252
REMARK  102  A    between atoms: _252  and  _253
REMARK  103  A    between atoms: _256  and  _258
REMARK  104  A    between atoms: _258  and  _259
REMARK  105  A    between atoms: _258  and  _261
REMARK  106  A    between atoms: _261  and  _262
REMARK  107  A    between atoms: _265  and  _267
REMARK  108  A    between atoms: _267  and  _268
REMARK  109  A    between atoms: _267  and  _270
REMARK  110  A    between atoms: _270  and  _271
REMARK  111  A    between atoms: _271  and  _272
REMARK  112  A    between atoms: _274  and  _276
REMARK  113  A    between atoms: _276  and  _277
REMARK  114  A    between atoms: _276  and  _279
REMARK  115  A    between atoms: _279  and  _280
REMARK  116  A    between atoms: _290  and  _292
REMARK  117  A    between atoms: _292  and  _293
REMARK  118  A    between atoms: _292  and  _295
REMARK  119  A    between atoms: _295  and  _296
REMARK  120  A    between atoms: _299  and  _301
REMARK  121  A    between atoms: _301  and  _302
REMARK  122  A    between atoms: _301  and  _304
REMARK  123  A    between atoms: _304  and  _305
REMARK  124  A    between atoms: _305  and  _306
REMARK  125  A    between atoms: _306  and  _307
REMARK  126  A    between atoms: _307  and  _308
REMARK  127  A    between atoms: _312  and  _314
REMARK  128  A    between atoms: _314  and  _315
REMARK  129  A    between atoms: _314  and  _317
REMARK  130  A    between atoms: _317  and  _318
REMARK  131  A    between atoms: _318  and  _319
REMARK  132  A    between atoms: _319  and  _320
REMARK  133  A    between atoms: _329  and  _331
REMARK  134  A    between atoms: _331  and  _332
REMARK  135  A    between atoms: _334  and  _336
REMARK  136  A    between atoms: _336  and  _337
REMARK  137  A    between atoms: _336  and  _339
REMARK  138  A    between atoms: _339  and  _340
REMARK  139  A    between atoms: _343  and  _345
REMARK  140  A    between atoms: _345  and  _346
REMARK  141  A    between atoms: _345  and  _348
REMARK  142  A    between atoms: _348  and  _349
REMARK  143  A    between atoms: _349  and  _350
REMARK  144  A    between atoms: _350  and  _351
REMARK  145  A    between atoms: _360  and  _362
REMARK  146  A    between atoms: _362  and  _363
REMARK  147  A    between atoms: _362  and  _365
REMARK  148  A    between atoms: _365  and  _366
REMARK  149  A    between atoms: _372  and  _374
REMARK  150  A    between atoms: _374  and  _375
REMARK  151  A    between atoms: _374  and  _377
REMARK  152  A    between atoms: _377  and  _378
REMARK  153  A    between atoms: _381  and  _383
REMARK  154  A    between atoms: _383  and  _384
REMARK  155  A    between atoms: _383  and  _386
REMARK  156  A    between atoms: _386  and  _387
REMARK  157  A    between atoms: _387  and  _388
REMARK  158  A    between atoms: _393  and  _395
REMARK  159  A    between atoms: _395  and  _396
REMARK  160  A    between atoms: _395  and  _398
REMARK  161  A    between atoms: _398  and  _399
REMARK  162  A    between atoms: _405  and  _407
REMARK  163  A    between atoms: _407  and  _408
REMARK  164  A    between atoms: _407  and  _410
REMARK  165  A    between atoms: _410  and  _411
REMARK  166  A    between atoms: _414  and  _416
REMARK  167  A    between atoms: _416  and  _417
REMARK  168  A    between atoms: _416  and  _419
REMARK  169  A    between atoms: _419  and  _420
REMARK  170  A    between atoms: _423  and  _425
REMARK  171  A    between atoms: _425  and  _426
REMARK  172  A    between atoms: _425  and  _428
REMARK  173  A    between atoms: _428  and  _429
REMARK  174  A    between atoms: _429  and  _430
REMARK  175  A    between atoms: _430  and  _431
REMARK  176  A    between atoms: _440  and  _442
REMARK  177  A    between atoms: _442  and  _443
REMARK  178  A    between atoms: _442  and  _445
REMARK  179  A    between atoms: _445  and  _446
REMARK  180  A    between atoms: _451  and  _453
REMARK  181  A    between atoms: _453  and  _454
REMARK  182  A    between atoms: _457  and  _459
REMARK  183  A    between atoms: _459  and  _460
REMARK  184  A    between atoms: _459  and  _462
REMARK  185  A    between atoms: _462  and  _463
REMARK  186  A    between atoms: _466  and  _468
REMARK  187  A    between atoms: _468  and  _469
REMARK  188  A    between atoms: _472  and  _474
REMARK  189  A    between atoms: _474  and  _475
REMARK  190  A    between atoms: _474  and  _477
REMARK  191  A    between atoms: _477  and  _478
REMARK  192  A    between atoms: _483  and  _484
REMARK  193  A    between atoms: _486  and  _488
REMARK  194  A    between atoms: _488  and  _489
REMARK  195  A    between atoms: _492  and  _494
REMARK  196  A    between atoms: _494  and  _495
REMARK  197  A    between atoms: _494  and  _497
REMARK  198  A    between atoms: _497  and  _498
REMARK  199  A    between atoms: _501  and  _503
REMARK  200  A    between atoms: _503  and  _504
REMARK  201  A    between atoms: _503  and  _506
REMARK  202  A    between atoms: _506  and  _507
REMARK  203  A    between atoms: _507  and  _508
REMARK  204  A    between atoms: _508  and  _509
REMARK  205  A    between atoms: _509  and  _510
REMARK  206  A    between atoms: _514  and  _516
REMARK  207  A    between atoms: _516  and  _517
REMARK  208  A    between atoms: _516  and  _519
REMARK  209  A    between atoms: _519  and  _520
REMARK  210  A    between atoms: _525  and  _526
REMARK  211  A    between atoms: _528  and  _530
REMARK  212  A    between atoms: _530  and  _531
REMARK  213  A    between atoms: _530  and  _533
REMARK  214  A    between atoms: _533  and  _534
REMARK  215  A    between atoms: _539  and  _541
REMARK  216  A    between atoms: _541  and  _542
REMARK  217  A    between atoms: _544  and  _546
REMARK  218  A    between atoms: _546  and  _547
REMARK  219  A    between atoms: _546  and  _549
REMARK  220  A    between atoms: _549  and  _550
REMARK  221  A    between atoms: _553  and  _555
REMARK  222  A    between atoms: _555  and  _556
REMARK  223  A    between atoms: _555  and  _558
REMARK  224  A    between atoms: _561  and  _563
REMARK  225  A    between atoms: _563  and  _564
REMARK  226  A    between atoms: _563  and  _566
REMARK  227  A    between atoms: _566  and  _567
REMARK  228  A    between atoms: _570  and  _572
REMARK  229  A    between atoms: _572  and  _573
REMARK  230  A    between atoms: _572  and  _575
REMARK  231  A    between atoms: _575  and  _576
REMARK  232  A    between atoms: _582  and  _584
REMARK  233  A    between atoms: _584  and  _585
REMARK  234  A    between atoms: _584  and  _587
REMARK  235  A    between atoms: _587  and  _588
REMARK  236  A    between atoms: _588  and  _589
REMARK  237  A    between atoms: _594  and  _596
REMARK  238  A    between atoms: _596  and  _597
REMARK  239  A    between atoms: _600  and  _602
REMARK  240  A    between atoms: _602  and  _603
REMARK  241  A    between atoms: _606  and  _608
REMARK  242  A    between atoms: _608  and  _609
REMARK  243  A    between atoms: _608  and  _611
REMARK  244  A    between atoms: _611  and  _612
REMARK  245  A    between atoms: _615  and  _617
REMARK  246  A    between atoms: _617  and  _618
REMARK  247  A    between atoms: _617  and  _620
REMARK  248  A    between atoms: _620  and  _621
REMARK  249  A    between atoms: _626  and  _627
REMARK  250  A    between atoms: _629  and  _631
REMARK  251  A    between atoms: _631  and  _632
REMARK  252  A    between atoms: _635  and  _637
REMARK  253  A    between atoms: _637  and  _638
REMARK  254  A    between atoms: _642  and  _643
REMARK  255  A    between atoms: _648  and  _650
REMARK  256  A    between atoms: _650  and  _651
REMARK  257  A    between atoms: _650  and  _653
REMARK  258  A    between atoms: _653  and  _654
REMARK  259  A    between atoms: _660  and  _662
REMARK  260  A    between atoms: _662  and  _663
REMARK  261  A    between atoms: _662  and  _665
REMARK  262  A    between atoms: _665  and  _666
REMARK  263  A    between atoms: _669  and  _671
REMARK  264  A    between atoms: _671  and  _672
REMARK  265  A    between atoms: _671  and  _674
REMARK  266  A    between atoms: _674  and  _675
REMARK  267  A    between atoms: _681  and  _683
REMARK  268  A    between atoms: _683  and  _684
REMARK  269  A    between atoms: _683  and  _686
REMARK  270  A    between atoms: _686  and  _687
REMARK  271  A    between atoms: _692  and  _693
REMARK  272  A    between atoms: _695  and  _697
REMARK  273  A    between atoms: _697  and  _698
REMARK  274  A    between atoms: _697  and  _700
REMARK  275  A    between atoms: _700  and  _701
REMARK  276  A    between atoms: _706  and  _707
REMARK  277  A    between atoms: _709  and  _711
REMARK  278  A    between atoms: _711  and  _712
REMARK  279  A    between atoms: _711  and  _714
REMARK  280  A    between atoms: _714  and  _715
REMARK  281  A    between atoms: _715  and  _716
REMARK  282  A    between atoms: _716  and  _717
REMARK  283  A    between atoms: _717  and  _718
REMARK  284  A    between atoms: _722  and  _724
REMARK  285  A    between atoms: _724  and  _725
REMARK  286  A    between atoms: _724  and  _727
REMARK                            x       y       z     vdW  Elec       q    Type
REMARK                         _______ _______ _______ _____ _____    ______ ____
ROOT
ATOM      1  O   HOH     1      16.378   1.461  17.581  0.00  0.00    +0.000 OA
ENDROOT
TORSDOF 0
REMARK  Name = ../refined-set-2016/2euk/2euk_pocket.pdb
REMARK  286 active torsions:
REMARK  status: ('A' for Active; 'I' for Inactive)
REMARK    1  A    between atoms: _1  and  _5
REMARK    2  A    between atoms: _5  and  _6
REMARK    3  A    between atoms: _5  and  _8
REMARK    4  A    between atoms: _8  and  _9
REMARK    5  A    between atoms: _12  and  _14
REMARK    6  A    between atoms: _14  and  _15
REMARK    7  A    between atoms: _14  and  _17
REMARK    8  A    between atoms: _17  and  _18
REMARK    9  A    between atoms: _23  and  _25
REMARK   10  A    between atoms: _25  and  _26
REMARK   11  A    between atoms: _25  and  _28
REMARK   12  A    between atoms: _28  and  _29
REMARK   13  A    between atoms: _33  and  _34
REMARK   14  A    between atoms: _40  and  _41
REMARK   15  A    between atoms: _46  and  _48
REMARK   16  A    between atoms: _48  and  _49
REMARK   17  A    between atoms: _48  and  _51
REMARK   18  A    between atoms: _51  and  _52
REMARK   19  A    between atoms: _58  and  _60
REMARK   20  A    between atoms: _60  and  _61
REMARK   21  A    between atoms: _60  and  _63
REMARK   22  A    between atoms: _63  and  _64
REMARK   23  A    between atoms: _70  and  _72
REMARK   24  A    between atoms: _72  and  _73
REMARK   25  A    between atoms: _72  and  _75
REMARK   26  A    between atoms: _75  and  _76
REMARK   27  A    between atoms: _79  and  _81
REMARK   28  A    between atoms: _81  and  _82
REMARK   29  A    between atoms: _81  and  _84
REMARK   30  A    between atoms: _86  and  _88
REMARK   31  A    between atoms: _88  and  _89
REMARK   32  A    between atoms: _88  and  _91
REMARK   33  A    between atoms: _91  and  _92
REMARK   34  A    between atoms: _95  and  _97
REMARK   35  A    between atoms: _97  and  _98
REMARK   36  A    between atoms: _97  and  _100
REMARK   37  A    between atoms: _100  and  _101
REMARK   38  A    between atoms: _103  and  _105
REMARK   39  A    between atoms: _105  and  _106
REMARK   40  A    between atoms: _105  and  _108
REMARK   41  A    between atoms: _111  and  _113
REMARK   42  A    between atoms: _113  and  _114
REMARK   43  A    between atoms: _113  and  _116
REMARK   44  A    between atoms: _116  and  _117
REMARK   45  A    between atoms: _123  and  _125
REMARK   46  A    between atoms: _125  and  _126
REMARK   47  A    between atoms: _125  and  _128
REMARK   48  A    between atoms: _128  and  _129
REMARK   49  A    between atoms: _133  and  _134
REMARK   50  A    between atoms: _139  and  _141
REMARK   51  A    between atoms: _141  and  _142
REMARK   52  A    between atoms: _141  and  _144
REMARK   53  A    between atoms: _144  and  _145
REMARK   54  A    between atoms: _148  and  _150
REMARK   55  A    between atoms: _150  and  _151
REMARK   56  A    between atoms: _150  and  _153
REMARK   57  A    between atoms: _153  and  _154
REMARK   58  A    between atoms: _154  and  _155
REMARK   59  A    between atoms: _155  and  _156
REMARK   60  A    between atoms: _156  and  _157
REMARK   61  A    between atoms: _161  and  _163
REMARK   62  A    between atoms: _163  and  _164
REMARK   63  A    between atoms: _167  and  _169
REMARK   64  A    between atoms: _169  and  _170
REMARK   65  A    between atoms: _169  and  _172
REMARK   66  A    between atoms: _172  and  _173
REMARK   67  A    between atoms: _176  and  _178
REMARK   68  A    between atoms: _178  and  _179
REMARK   69  A    between atoms: _178  and  _181
REMARK   70  A    between atoms: _181  and  _182
REMARK   71  A    between atoms: _185  and  _187
REMARK   72  A    between atoms: _187  and  _188
REMARK   73  A    between atoms: _190  and  _192
REMARK   74  A    between atoms: _192  and  _193
REMARK   75  A    between atoms: _192  and  _195
REMARK   76  A    between atoms: _195  and  _196
REMARK   77  A    between atoms: _201  and  _203
REMARK   78  A    between atoms: _203  and  _204
REMARK   79  A    between atoms: _203  and  _206
REMARK   80  A    between atoms: _206  and  _207
REMARK   81  A    between atoms: _210  and  _212
REMARK   82  A    between atoms: _212  and  _213
REMARK   83  A    between atoms: _212  and  _215
REMARK   84  A    between atoms: _215  and  _216
REMARK   85  A    between atoms: _216  and  _217
REMARK   86  A    between atoms: _217  and  _218
REMARK   87  A    between atoms: _218  and  _219
REMARK   88  A    between atoms: _223  and  _225
REMARK   89  A    between atoms: _225  and  _226
REMARK   90  A    between atoms: _225  and  _228
REMARK   91  A    between atoms: _228  and  _229
REMARK   92  A    between atoms: _229  and  _230
REMARK   93  A    between atoms: _230  and  _231
REMARK   94  A    between atoms: _231  and  _232
REMARK   95  A    between atoms: _236  and  _238
REMARK   96  A    between atoms: _238  and  _239
REMARK   97  A    between atoms: _241  and  _243
REMARK   98  A    between atoms: _243  and  _244
REMARK   99  A    between atoms: _243  and  _246
REMARK  100  A    between atoms: _246  and  _247
REMARK  101  A    between atoms: _250  and  _252
REMARK  102  A    between atoms: _252  and  _253
REMARK  103  A    between atoms: _256  and  _258
REMARK  104  A    between atoms: _258  and  _259
REMARK  105  A    between atoms: _258  and  _261
REMARK  106  A    between atoms: _261  and  _262
REMARK  107  A    between atoms: _265  and  _267
REMARK  108  A    between atoms: _267  and  _268
REMARK  109  A    between atoms: _267  and  _270
REMARK  110  A    between atoms: _270  and  _271
REMARK  111  A    between atoms: _271  and  _272
REMARK  112  A    between atoms: _274  and  _276
REMARK  113  A    between atoms: _276  and  _277
REMARK  114  A    between atoms: _276  and  _279
REMARK  115  A    between atoms: _279  and  _280
REMARK  116  A    between atoms: _290  and  _292
REMARK  117  A    between atoms: _292  and  _293
REMARK  118  A    between atoms: _292  and  _295
REMARK  119  A    between atoms: _295  and  _296
REMARK  120  A    between atoms: _299  and  _301
REMARK  121  A    between atoms: _301  and  _302
REMARK  122  A    between atoms: _301  and  _304
REMARK  123  A    between atoms: _304  and  _305
REMARK  124  A    between atoms: _305  and  _306
REMARK  125  A    between atoms: _306  and  _307
REMARK  126  A    between atoms: _307  and  _308
REMARK  127  A    between atoms: _312  and  _314
REMARK  128  A    between atoms: _314  and  _315
REMARK  129  A    between atoms: _314  and  _317
REMARK  130  A    between atoms: _317  and  _318
REMARK  131  A    between atoms: _318  and  _319
REMARK  132  A    between atoms: _319  and  _320
REMARK  133  A    between atoms: _329  and  _331
REMARK  134  A    between atoms: _331  and  _332
REMARK  135  A    between atoms: _334  and  _336
REMARK  136  A    between atoms: _336  and  _337
REMARK  137  A    between atoms: _336  and  _339
REMARK  138  A    between atoms: _339  and  _340
REMARK  139  A    between atoms: _343  and  _345
REMARK  140  A    between atoms: _345  and  _346
REMARK  141  A    between atoms: _345  and  _348
REMARK  142  A    between atoms: _348  and  _349
REMARK  143  A    between atoms: _349  and  _350
REMARK  144  A    between atoms: _350  and  _351
REMARK  145  A    between atoms: _360  and  _362
REMARK  146  A    between atoms: _362  and  _363
REMARK  147  A    between atoms: _362  and  _365
REMARK  148  A    between atoms: _365  and  _366
REMARK  149  A    between atoms: _372  and  _374
REMARK  150  A    between atoms: _374  and  _375
REMARK  151  A    between atoms: _374  and  _377
REMARK  152  A    between atoms: _377  and  _378
REMARK  153  A    between atoms: _381  and  _383
REMARK  154  A    between atoms: _383  and  _384
REMARK  155  A    between atoms: _383  and  _386
REMARK  156  A    between atoms: _386  and  _387
REMARK  157  A    between atoms: _387  and  _388
REMARK  158  A    between atoms: _393  and  _395
REMARK  159  A    between atoms: _395  and  _396
REMARK  160  A    between atoms: _395  and  _398
REMARK  161  A    between atoms: _398  and  _399
REMARK  162  A    between atoms: _405  and  _407
REMARK  163  A    between atoms: _407  and  _408
REMARK  164  A    between atoms: _407  and  _410
REMARK  165  A    between atoms: _410  and  _411
REMARK  166  A    between atoms: _414  and  _416
REMARK  167  A    between atoms: _416  and  _417
REMARK  168  A    between atoms: _416  and  _419
REMARK  169  A    between atoms: _419  and  _420
REMARK  170  A    between atoms: _423  and  _425
REMARK  171  A    between atoms: _425  and  _426
REMARK  172  A    between atoms: _425  and  _428
REMARK  173  A    between atoms: _428  and  _429
REMARK  174  A    between atoms: _429  and  _430
REMARK  175  A    between atoms: _430  and  _431
REMARK  176  A    between atoms: _440  and  _442
REMARK  177  A    between atoms: _442  and  _443
REMARK  178  A    between atoms: _442  and  _445
REMARK  179  A    between atoms: _445  and  _446
REMARK  180  A    between atoms: _451  and  _453
REMARK  181  A    between atoms: _453  and  _454
REMARK  182  A    between atoms: _457  and  _459
REMARK  183  A    between atoms: _459  and  _460
REMARK  184  A    between atoms: _459  and  _462
REMARK  185  A    between atoms: _462  and  _463
REMARK  186  A    between atoms: _466  and  _468
REMARK  187  A    between atoms: _468  and  _469
REMARK  188  A    between atoms: _472  and  _474
REMARK  189  A    between atoms: _474  and  _475
REMARK  190  A    between atoms: _474  and  _477
REMARK  191  A    between atoms: _477  and  _478
REMARK  192  A    between atoms: _483  and  _484
REMARK  193  A    between atoms: _486  and  _488
REMARK  194  A    between atoms: _488  and  _489
REMARK  195  A    between atoms: _492  and  _494
REMARK  196  A    between atoms: _494  and  _495
REMARK  197  A    between atoms: _494  and  _497
REMARK  198  A    between atoms: _497  and  _498
REMARK  199  A    between atoms: _501  and  _503
REMARK  200  A    between atoms: _503  and  _504
REMARK  201  A    between atoms: _503  and  _506
REMARK  202  A    between atoms: _506  and  _507
REMARK  203  A    between atoms: _507  and  _508
REMARK  204  A    between atoms: _508  and  _509
REMARK  205  A    between atoms: _509  and  _510
REMARK  206  A    between atoms: _514  and  _516
REMARK  207  A    between atoms: _516  and  _517
REMARK  208  A    between atoms: _516  and  _519
REMARK  209  A    between atoms: _519  and  _520
REMARK  210  A    between atoms: _525  and  _526
REMARK  211  A    between atoms: _528  and  _530
REMARK  212  A    between atoms: _530  and  _531
REMARK  213  A    between atoms: _530  and  _533
REMARK  214  A    between atoms: _533  and  _534
REMARK  215  A    between atoms: _539  and  _541
REMARK  216  A    between atoms: _541  and  _542
REMARK  217  A    between atoms: _544  and  _546
REMARK  218  A    between atoms: _546  and  _547
REMARK  219  A    between atoms: _546  and  _549
REMARK  220  A    between atoms: _549  and  _550
REMARK  221  A    between atoms: _553  and  _555
REMARK  222  A    between atoms: _555  and  _556
REMARK  223  A    between atoms: _555  and  _558
REMARK  224  A    between atoms: _561  and  _563
REMARK  225  A    between atoms: _563  and  _564
REMARK  226  A    between atoms: _563  and  _566
REMARK  227  A    between atoms: _566  and  _567
REMARK  228  A    between atoms: _570  and  _572
REMARK  229  A    between atoms: _572  and  _573
REMARK  230  A    between atoms: _572  and  _575
REMARK  231  A    between atoms: _575  and  _576
REMARK  232  A    between atoms: _582  and  _584
REMARK  233  A    between atoms: _584  and  _585
REMARK  234  A    between atoms: _584  and  _587
REMARK  235  A    between atoms: _587  and  _588
REMARK  236  A    between atoms: _588  and  _589
REMARK  237  A    between atoms: _594  and  _596
REMARK  238  A    between atoms: _596  and  _597
REMARK  239  A    between atoms: _600  and  _602
REMARK  240  A    between atoms: _602  and  _603
REMARK  241  A    between atoms: _606  and  _608
REMARK  242  A    between atoms: _608  and  _609
REMARK  243  A    between atoms: _608  and  _611
REMARK  244  A    between atoms: _611  and  _612
REMARK  245  A    between atoms: _615  and  _617
REMARK  246  A    between atoms: _617  and  _618
REMARK  247  A    between atoms: _617  and  _620
REMARK  248  A    between atoms: _620  and  _621
REMARK  249  A    between atoms: _626  and  _627
REMARK  250  A    between atoms: _629  and  _631
REMARK  251  A    between atoms: _631  and  _632
REMARK  252  A    between atoms: _635  and  _637
REMARK  253  A    between atoms: _637  and  _638
REMARK  254  A    between atoms: _642  and  _643
REMARK  255  A    between atoms: _648  and  _650
REMARK  256  A    between atoms: _650  and  _651
REMARK  257  A    between atoms: _650  and  _653
REMARK  258  A    between atoms: _653  and  _654
REMARK  259  A    between atoms: _660  and  _662
REMARK  260  A    between atoms: _662  and  _663
REMARK  261  A    between atoms: _662  and  _665
REMARK  262  A    between atoms: _665  and  _666
REMARK  263  A    between atoms: _669  and  _671
REMARK  264  A    between atoms: _671  and  _672
REMARK  265  A    between atoms: _671  and  _674
REMARK  266  A    between atoms: _674  and  _675
REMARK  267  A    between atoms: _681  and  _683
REMARK  268  A    between atoms: _683  and  _684
REMARK  269  A    between atoms: _683  and  _686
REMARK  270  A    between atoms: _686  and  _687
REMARK  271  A    between atoms: _692  and  _693
REMARK  272  A    between atoms: _695  and  _697
REMARK  273  A    between atoms: _697  and  _698
REMARK  274  A    between atoms: _697  and  _700
REMARK  275  A    between atoms: _700  and  _701
REMARK  276  A    between atoms: _706  and  _707
REMARK  277  A    between atoms: _709  and  _711
REMARK  278  A    between atoms: _711  and  _712
REMARK  279  A    between atoms: _711  and  _714
REMARK  280  A    between atoms: _714  and  _715
REMARK  281  A    between atoms: _715  and  _716
REMARK  282  A    between atoms: _716  and  _717
REMARK  283  A    between atoms: _717  and  _718
REMARK  284  A    between atoms: _722  and  _724
REMARK  285  A    between atoms: _724  and  _725
REMARK  286  A    between atoms: _724  and  _727
REMARK                            x       y       z     vdW  Elec       q    Type
REMARK                         _______ _______ _______ _____ _____    ______ ____
ROOT
ATOM      1  O   HOH     1      24.542  -3.903  11.815  0.00  0.00    +0.000 OA
ENDROOT
TORSDOF 0
REMARK  Name = ../refined-set-2016/2euk/2euk_pocket.pdb
REMARK  286 active torsions:
REMARK  status: ('A' for Active; 'I' for Inactive)
REMARK    1  A    between atoms: _1  and  _5
REMARK    2  A    between atoms: _5  and  _6
REMARK    3  A    between atoms: _5  and  _8
REMARK    4  A    between atoms: _8  and  _9
REMARK    5  A    between atoms: _12  and  _14
REMARK    6  A    between atoms: _14  and  _15
REMARK    7  A    between atoms: _14  and  _17
REMARK    8  A    between atoms: _17  and  _18
REMARK    9  A    between atoms: _23  and  _25
REMARK   10  A    between atoms: _25  and  _26
REMARK   11  A    between atoms: _25  and  _28
REMARK   12  A    between atoms: _28  and  _29
REMARK   13  A    between atoms: _33  and  _34
REMARK   14  A    between atoms: _40  and  _41
REMARK   15  A    between atoms: _46  and  _48
REMARK   16  A    between atoms: _48  and  _49
REMARK   17  A    between atoms: _48  and  _51
REMARK   18  A    between atoms: _51  and  _52
REMARK   19  A    between atoms: _58  and  _60
REMARK   20  A    between atoms: _60  and  _61
REMARK   21  A    between atoms: _60  and  _63
REMARK   22  A    between atoms: _63  and  _64
REMARK   23  A    between atoms: _70  and  _72
REMARK   24  A    between atoms: _72  and  _73
REMARK   25  A    between atoms: _72  and  _75
REMARK   26  A    between atoms: _75  and  _76
REMARK   27  A    between atoms: _79  and  _81
REMARK   28  A    between atoms: _81  and  _82
REMARK   29  A    between atoms: _81  and  _84
REMARK   30  A    between atoms: _86  and  _88
REMARK   31  A    between atoms: _88  and  _89
REMARK   32  A    between atoms: _88  and  _91
REMARK   33  A    between atoms: _91  and  _92
REMARK   34  A    between atoms: _95  and  _97
REMARK   35  A    between atoms: _97  and  _98
REMARK   36  A    between atoms: _97  and  _100
REMARK   37  A    between atoms: _100  and  _101
REMARK   38  A    between atoms: _103  and  _105
REMARK   39  A    between atoms: _105  and  _106
REMARK   40  A    between atoms: _105  and  _108
REMARK   41  A    between atoms: _111  and  _113
REMARK   42  A    between atoms: _113  and  _114
REMARK   43  A    between atoms: _113  and  _116
REMARK   44  A    between atoms: _116  and  _117
REMARK   45  A    between atoms: _123  and  _125
REMARK   46  A    between atoms: _125  and  _126
REMARK   47  A    between atoms: _125  and  _128
REMARK   48  A    between atoms: _128  and  _129
REMARK   49  A    between atoms: _133  and  _134
REMARK   50  A    between atoms: _139  and  _141
REMARK   51  A    between atoms: _141  and  _142
REMARK   52  A    between atoms: _141  and  _144
REMARK   53  A    between atoms: _144  and  _145
REMARK   54  A    between atoms: _148  and  _150
REMARK   55  A    between atoms: _150  and  _151
REMARK   56  A    between atoms: _150  and  _153
REMARK   57  A    between atoms: _153  and  _154
REMARK   58  A    between atoms: _154  and  _155
REMARK   59  A    between atoms: _155  and  _156
REMARK   60  A    between atoms: _156  and  _157
REMARK   61  A    between atoms: _161  and  _163
REMARK   62  A    between atoms: _163  and  _164
REMARK   63  A    between atoms: _167  and  _169
REMARK   64  A    between atoms: _169  and  _170
REMARK   65  A    between atoms: _169  and  _172
REMARK   66  A    between atoms: _172  and  _173
REMARK   67  A    between atoms: _176  and  _178
REMARK   68  A    between atoms: _178  and  _179
REMARK   69  A    between atoms: _178  and  _181
REMARK   70  A    between atoms: _181  and  _182
REMARK   71  A    between atoms: _185  and  _187
REMARK   72  A    between atoms: _187  and  _188
REMARK   73  A    between atoms: _190  and  _192
REMARK   74  A    between atoms: _192  and  _193
REMARK   75  A    between atoms: _192  and  _195
REMARK   76  A    between atoms: _195  and  _196
REMARK   77  A    between atoms: _201  and  _203
REMARK   78  A    between atoms: _203  and  _204
REMARK   79  A    between atoms: _203  and  _206
REMARK   80  A    between atoms: _206  and  _207
REMARK   81  A    between atoms: _210  and  _212
REMARK   82  A    between atoms: _212  and  _213
REMARK   83  A    between atoms: _212  and  _215
REMARK   84  A    between atoms: _215  and  _216
REMARK   85  A    between atoms: _216  and  _217
REMARK   86  A    between atoms: _217  and  _218
REMARK   87  A    between atoms: _218  and  _219
REMARK   88  A    between atoms: _223  and  _225
REMARK   89  A    between atoms: _225  and  _226
REMARK   90  A    between atoms: _225  and  _228
REMARK   91  A    between atoms: _228  and  _229
REMARK   92  A    between atoms: _229  and  _230
REMARK   93  A    between atoms: _230  and  _231
REMARK   94  A    between atoms: _231  and  _232
REMARK   95  A    between atoms: _236  and  _238
REMARK   96  A    between atoms: _238  and  _239
REMARK   97  A    between atoms: _241  and  _243
REMARK   98  A    between atoms: _243  and  _244
REMARK   99  A    between atoms: _243  and  _246
REMARK  100  A    between atoms: _246  and  _247
REMARK  101  A    between atoms: _250  and  _252
REMARK  102  A    between atoms: _252  and  _253
REMARK  103  A    between atoms: _256  and  _258
REMARK  104  A    between atoms: _258  and  _259
REMARK  105  A    between atoms: _258  and  _261
REMARK  106  A    between atoms: _261  and  _262
REMARK  107  A    between atoms: _265  and  _267
REMARK  108  A    between atoms: _267  and  _268
REMARK  109  A    between atoms: _267  and  _270
REMARK  110  A    between atoms: _270  and  _271
REMARK  111  A    between atoms: _271  and  _272
REMARK  112  A    between atoms: _274  and  _276
REMARK  113  A    between atoms: _276  and  _277
REMARK  114  A    between atoms: _276  and  _279
REMARK  115  A    between atoms: _279  and  _280
REMARK  116  A    between atoms: _290  and  _292
REMARK  117  A    between atoms: _292  and  _293
REMARK  118  A    between atoms: _292  and  _295
REMARK  119  A    between atoms: _295  and  _296
REMARK  120  A    between atoms: _299  and  _301
REMARK  121  A    between atoms: _301  and  _302
REMARK  122  A    between atoms: _301  and  _304
REMARK  123  A    between atoms: _304  and  _305
REMARK  124  A    between atoms: _305  and  _306
REMARK  125  A    between atoms: _306  and  _307
REMARK  126  A    between atoms: _307  and  _308
REMARK  127  A    between atoms: _312  and  _314
REMARK  128  A    between atoms: _314  and  _315
REMARK  129  A    between atoms: _314  and  _317
REMARK  130  A    between atoms: _317  and  _318
REMARK  131  A    between atoms: _318  and  _319
REMARK  132  A    between atoms: _319  and  _320
REMARK  133  A    between atoms: _329  and  _331
REMARK  134  A    between atoms: _331  and  _332
REMARK  135  A    between atoms: _334  and  _336
REMARK  136  A    between atoms: _336  and  _337
REMARK  137  A    between atoms: _336  and  _339
REMARK  138  A    between atoms: _339  and  _340
REMARK  139  A    between atoms: _343  and  _345
REMARK  140  A    between atoms: _345  and  _346
REMARK  141  A    between atoms: _345  and  _348
REMARK  142  A    between atoms: _348  and  _349
REMARK  143  A    between atoms: _349  and  _350
REMARK  144  A    between atoms: _350  and  _351
REMARK  145  A    between atoms: _360  and  _362
REMARK  146  A    between atoms: _362  and  _363
REMARK  147  A    between atoms: _362  and  _365
REMARK  148  A    between atoms: _365  and  _366
REMARK  149  A    between atoms: _372  and  _374
REMARK  150  A    between atoms: _374  and  _375
REMARK  151  A    between atoms: _374  and  _377
REMARK  152  A    between atoms: _377  and  _378
REMARK  153  A    between atoms: _381  and  _383
REMARK  154  A    between atoms: _383  and  _384
REMARK  155  A    between atoms: _383  and  _386
REMARK  156  A    between atoms: _386  and  _387
REMARK  157  A    between atoms: _387  and  _388
REMARK  158  A    between atoms: _393  and  _395
REMARK  159  A    between atoms: _395  and  _396
REMARK  160  A    between atoms: _395  and  _398
REMARK  161  A    between atoms: _398  and  _399
REMARK  162  A    between atoms: _405  and  _407
REMARK  163  A    between atoms: _407  and  _408
REMARK  164  A    between atoms: _407  and  _410
REMARK  165  A    between atoms: _410  and  _411
REMARK  166  A    between atoms: _414  and  _416
REMARK  167  A    between atoms: _416  and  _417
REMARK  168  A    between atoms: _416  and  _419
REMARK  169  A    between atoms: _419  and  _420
REMARK  170  A    between atoms: _423  and  _425
REMARK  171  A    between atoms: _425  and  _426
REMARK  172  A    between atoms: _425  and  _428
REMARK  173  A    between atoms: _428  and  _429
REMARK  174  A    between atoms: _429  and  _430
REMARK  175  A    between atoms: _430  and  _431
REMARK  176  A    between atoms: _440  and  _442
REMARK  177  A    between atoms: _442  and  _443
REMARK  178  A    between atoms: _442  and  _445
REMARK  179  A    between atoms: _445  and  _446
REMARK  180  A    between atoms: _451  and  _453
REMARK  181  A    between atoms: _453  and  _454
REMARK  182  A    between atoms: _457  and  _459
REMARK  183  A    between atoms: _459  and  _460
REMARK  184  A    between atoms: _459  and  _462
REMARK  185  A    between atoms: _462  and  _463
REMARK  186  A    between atoms: _466  and  _468
REMARK  187  A    between atoms: _468  and  _469
REMARK  188  A    between atoms: _472  and  _474
REMARK  189  A    between atoms: _474  and  _475
REMARK  190  A    between atoms: _474  and  _477
REMARK  191  A    between atoms: _477  and  _478
REMARK  192  A    between atoms: _483  and  _484
REMARK  193  A    between atoms: _486  and  _488
REMARK  194  A    between atoms: _488  and  _489
REMARK  195  A    between atoms: _492  and  _494
REMARK  196  A    between atoms: _494  and  _495
REMARK  197  A    between atoms: _494  and  _497
REMARK  198  A    between atoms: _497  and  _498
REMARK  199  A    between atoms: _501  and  _503
REMARK  200  A    between atoms: _503  and  _504
REMARK  201  A    between atoms: _503  and  _506
REMARK  202  A    between atoms: _506  and  _507
REMARK  203  A    between atoms: _507  and  _508
REMARK  204  A    between atoms: _508  and  _509
REMARK  205  A    between atoms: _509  and  _510
REMARK  206  A    between atoms: _514  and  _516
REMARK  207  A    between atoms: _516  and  _517
REMARK  208  A    between atoms: _516  and  _519
REMARK  209  A    between atoms: _519  and  _520
REMARK  210  A    between atoms: _525  and  _526
REMARK  211  A    between atoms: _528  and  _530
REMARK  212  A    between atoms: _530  and  _531
REMARK  213  A    between atoms: _530  and  _533
REMARK  214  A    between atoms: _533  and  _534
REMARK  215  A    between atoms: _539  and  _541
REMARK  216  A    between atoms: _541  and  _542
REMARK  217  A    between atoms: _544  and  _546
REMARK  218  A    between atoms: _546  and  _547
REMARK  219  A    between atoms: _546  and  _549
REMARK  220  A    between atoms: _549  and  _550
REMARK  221  A    between atoms: _553  and  _555
REMARK  222  A    between atoms: _555  and  _556
REMARK  223  A    between atoms: _555  and  _558
REMARK  224  A    between atoms: _561  and  _563
REMARK  225  A    between atoms: _563  and  _564
REMARK  226  A    between atoms: _563  and  _566
REMARK  227  A    between atoms: _566  and  _567
REMARK  228  A    between atoms: _570  and  _572
REMARK  229  A    between atoms: _572  and  _573
REMARK  230  A    between atoms: _572  and  _575
REMARK  231  A    between atoms: _575  and  _576
REMARK  232  A    between atoms: _582  and  _584
REMARK  233  A    between atoms: _584  and  _585
REMARK  234  A    between atoms: _584  and  _587
REMARK  235  A    between atoms: _587  and  _588
REMARK  236  A    between atoms: _588  and  _589
REMARK  237  A    between atoms: _594  and  _596
REMARK  238  A    between atoms: _596  and  _597
REMARK  239  A    between atoms: _600  and  _602
REMARK  240  A    between atoms: _602  and  _603
REMARK  241  A    between atoms: _606  and  _608
REMARK  242  A    between atoms: _608  and  _609
REMARK  243  A    between atoms: _608  and  _611
REMARK  244  A    between atoms: _611  and  _612
REMARK  245  A    between atoms: _615  and  _617
REMARK  246  A    between atoms: _617  and  _618
REMARK  247  A    between atoms: _617  and  _620
REMARK  248  A    between atoms: _620  and  _621
REMARK  249  A    between atoms: _626  and  _627
REMARK  250  A    between atoms: _629  and  _631
REMARK  251  A    between atoms: _631  and  _632
REMARK  252  A    between atoms: _635  and  _637
REMARK  253  A    between atoms: _637  and  _638
REMARK  254  A    between atoms: _642  and  _643
REMARK  255  A    between atoms: _648  and  _650
REMARK  256  A    between atoms: _650  and  _651
REMARK  257  A    between atoms: _650  and  _653
REMARK  258  A    between atoms: _653  and  _654
REMARK  259  A    between atoms: _660  and  _662
REMARK  260  A    between atoms: _662  and  _663
REMARK  261  A    between atoms: _662  and  _665
REMARK  262  A    between atoms: _665  and  _666
REMARK  263  A    between atoms: _669  and  _671
REMARK  264  A    between atoms: _671  and  _672
REMARK  265  A    between atoms: _671  and  _674
REMARK  266  A    between atoms: _674  and  _675
REMARK  267  A    between atoms: _681  and  _683
REMARK  268  A    between atoms: _683  and  _684
REMARK  269  A    between atoms: _683  and  _686
REMARK  270  A    between atoms: _686  and  _687
REMARK  271  A    between atoms: _692  and  _693
REMARK  272  A    between atoms: _695  and  _697
REMARK  273  A    between atoms: _697  and  _698
REMARK  274  A    between atoms: _697  and  _700
REMARK  275  A    between atoms: _700  and  _701
REMARK  276  A    between atoms: _706  and  _707
REMARK  277  A    between atoms: _709  and  _711
REMARK  278  A    between atoms: _711  and  _712
REMARK  279  A    between atoms: _711  and  _714
REMARK  280  A    between atoms: _714  and  _715
REMARK  281  A    between atoms: _715  and  _716
REMARK  282  A    between atoms: _716  and  _717
REMARK  283  A    between atoms: _717  and  _718
REMARK  284  A    between atoms: _722  and  _724
REMARK  285  A    between atoms: _724  and  _725
REMARK  286  A    between atoms: _724  and  _727
REMARK                            x       y       z     vdW  Elec       q    Type
REMARK                         _______ _______ _______ _____ _____    ______ ____
ROOT
ATOM      1  O   HOH     1      20.245   4.187  20.803  0.00  0.00    +0.000 OA
ENDROOT
TORSDOF 0
REMARK  Name = ../refined-set-2016/2euk/2euk_pocket.pdb
REMARK  286 active torsions:
REMARK  status: ('A' for Active; 'I' for Inactive)
REMARK    1  A    between atoms: _1  and  _5
REMARK    2  A    between atoms: _5  and  _6
REMARK    3  A    between atoms: _5  and  _8
REMARK    4  A    between atoms: _8  and  _9
REMARK    5  A    between atoms: _12  and  _14
REMARK    6  A    between atoms: _14  and  _15
REMARK    7  A    between atoms: _14  and  _17
REMARK    8  A    between atoms: _17  and  _18
REMARK    9  A    between atoms: _23  and  _25
REMARK   10  A    between atoms: _25  and  _26
REMARK   11  A    between atoms: _25  and  _28
REMARK   12  A    between atoms: _28  and  _29
REMARK   13  A    between atoms: _33  and  _34
REMARK   14  A    between atoms: _40  and  _41
REMARK   15  A    between atoms: _46  and  _48
REMARK   16  A    between atoms: _48  and  _49
REMARK   17  A    between atoms: _48  and  _51
REMARK   18  A    between atoms: _51  and  _52
REMARK   19  A    between atoms: _58  and  _60
REMARK   20  A    between atoms: _60  and  _61
REMARK   21  A    between atoms: _60  and  _63
REMARK   22  A    between atoms: _63  and  _64
REMARK   23  A    between atoms: _70  and  _72
REMARK   24  A    between atoms: _72  and  _73
REMARK   25  A    between atoms: _72  and  _75
REMARK   26  A    between atoms: _75  and  _76
REMARK   27  A    between atoms: _79  and  _81
REMARK   28  A    between atoms: _81  and  _82
REMARK   29  A    between atoms: _81  and  _84
REMARK   30  A    between atoms: _86  and  _88
REMARK   31  A    between atoms: _88  and  _89
REMARK   32  A    between atoms: _88  and  _91
REMARK   33  A    between atoms: _91  and  _92
REMARK   34  A    between atoms: _95  and  _97
REMARK   35  A    between atoms: _97  and  _98
REMARK   36  A    between atoms: _97  and  _100
REMARK   37  A    between atoms: _100  and  _101
REMARK   38  A    between atoms: _103  and  _105
REMARK   39  A    between atoms: _105  and  _106
REMARK   40  A    between atoms: _105  and  _108
REMARK   41  A    between atoms: _111  and  _113
REMARK   42  A    between atoms: _113  and  _114
REMARK   43  A    between atoms: _113  and  _116
REMARK   44  A    between atoms: _116  and  _117
REMARK   45  A    between atoms: _123  and  _125
REMARK   46  A    between atoms: _125  and  _126
REMARK   47  A    between atoms: _125  and  _128
REMARK   48  A    between atoms: _128  and  _129
REMARK   49  A    between atoms: _133  and  _134
REMARK   50  A    between atoms: _139  and  _141
REMARK   51  A    between atoms: _141  and  _142
REMARK   52  A    between atoms: _141  and  _144
REMARK   53  A    between atoms: _144  and  _145
REMARK   54  A    between atoms: _148  and  _150
REMARK   55  A    between atoms: _150  and  _151
REMARK   56  A    between atoms: _150  and  _153
REMARK   57  A    between atoms: _153  and  _154
REMARK   58  A    between atoms: _154  and  _155
REMARK   59  A    between atoms: _155  and  _156
REMARK   60  A    between atoms: _156  and  _157
REMARK   61  A    between atoms: _161  and  _163
REMARK   62  A    between atoms: _163  and  _164
REMARK   63  A    between atoms: _167  and  _169
REMARK   64  A    between atoms: _169  and  _170
REMARK   65  A    between atoms: _169  and  _172
REMARK   66  A    between atoms: _172  and  _173
REMARK   67  A    between atoms: _176  and  _178
REMARK   68  A    between atoms: _178  and  _179
REMARK   69  A    between atoms: _178  and  _181
REMARK   70  A    between atoms: _181  and  _182
REMARK   71  A    between atoms: _185  and  _187
REMARK   72  A    between atoms: _187  and  _188
REMARK   73  A    between atoms: _190  and  _192
REMARK   74  A    between atoms: _192  and  _193
REMARK   75  A    between atoms: _192  and  _195
REMARK   76  A    between atoms: _195  and  _196
REMARK   77  A    between atoms: _201  and  _203
REMARK   78  A    between atoms: _203  and  _204
REMARK   79  A    between atoms: _203  and  _206
REMARK   80  A    between atoms: _206  and  _207
REMARK   81  A    between atoms: _210  and  _212
REMARK   82  A    between atoms: _212  and  _213
REMARK   83  A    between atoms: _212  and  _215
REMARK   84  A    between atoms: _215  and  _216
REMARK   85  A    between atoms: _216  and  _217
REMARK   86  A    between atoms: _217  and  _218
REMARK   87  A    between atoms: _218  and  _219
REMARK   88  A    between atoms: _223  and  _225
REMARK   89  A    between atoms: _225  and  _226
REMARK   90  A    between atoms: _225  and  _228
REMARK   91  A    between atoms: _228  and  _229
REMARK   92  A    between atoms: _229  and  _230
REMARK   93  A    between atoms: _230  and  _231
REMARK   94  A    between atoms: _231  and  _232
REMARK   95  A    between atoms: _236  and  _238
REMARK   96  A    between atoms: _238  and  _239
REMARK   97  A    between atoms: _241  and  _243
REMARK   98  A    between atoms: _243  and  _244
REMARK   99  A    between atoms: _243  and  _246
REMARK  100  A    between atoms: _246  and  _247
REMARK  101  A    between atoms: _250  and  _252
REMARK  102  A    between atoms: _252  and  _253
REMARK  103  A    between atoms: _256  and  _258
REMARK  104  A    between atoms: _258  and  _259
REMARK  105  A    between atoms: _258  and  _261
REMARK  106  A    between atoms: _261  and  _262
REMARK  107  A    between atoms: _265  and  _267
REMARK  108  A    between atoms: _267  and  _268
REMARK  109  A    between atoms: _267  and  _270
REMARK  110  A    between atoms: _270  and  _271
REMARK  111  A    between atoms: _271  and  _272
REMARK  112  A    between atoms: _274  and  _276
REMARK  113  A    between atoms: _276  and  _277
REMARK  114  A    between atoms: _276  and  _279
REMARK  115  A    between atoms: _279  and  _280
REMARK  116  A    between atoms: _290  and  _292
REMARK  117  A    between atoms: _292  and  _293
REMARK  118  A    between atoms: _292  and  _295
REMARK  119  A    between atoms: _295  and  _296
REMARK  120  A    between atoms: _299  and  _301
REMARK  121  A    between atoms: _301  and  _302
REMARK  122  A    between atoms: _301  and  _304
REMARK  123  A    between atoms: _304  and  _305
REMARK  124  A    between atoms: _305  and  _306
REMARK  125  A    between atoms: _306  and  _307
REMARK  126  A    between atoms: _307  and  _308
REMARK  127  A    between atoms: _312  and  _314
REMARK  128  A    between atoms: _314  and  _315
REMARK  129  A    between atoms: _314  and  _317
REMARK  130  A    between atoms: _317  and  _318
REMARK  131  A    between atoms: _318  and  _319
REMARK  132  A    between atoms: _319  and  _320
REMARK  133  A    between atoms: _329  and  _331
REMARK  134  A    between atoms: _331  and  _332
REMARK  135  A    between atoms: _334  and  _336
REMARK  136  A    between atoms: _336  and  _337
REMARK  137  A    between atoms: _336  and  _339
REMARK  138  A    between atoms: _339  and  _340
REMARK  139  A    between atoms: _343  and  _345
REMARK  140  A    between atoms: _345  and  _346
REMARK  141  A    between atoms: _345  and  _348
REMARK  142  A    between atoms: _348  and  _349
REMARK  143  A    between atoms: _349  and  _350
REMARK  144  A    between atoms: _350  and  _351
REMARK  145  A    between atoms: _360  and  _362
REMARK  146  A    between atoms: _362  and  _363
REMARK  147  A    between atoms: _362  and  _365
REMARK  148  A    between atoms: _365  and  _366
REMARK  149  A    between atoms: _372  and  _374
REMARK  150  A    between atoms: _374  and  _375
REMARK  151  A    between atoms: _374  and  _377
REMARK  152  A    between atoms: _377  and  _378
REMARK  153  A    between atoms: _381  and  _383
REMARK  154  A    between atoms: _383  and  _384
REMARK  155  A    between atoms: _383  and  _386
REMARK  156  A    between atoms: _386  and  _387
REMARK  157  A    between atoms: _387  and  _388
REMARK  158  A    between atoms: _393  and  _395
REMARK  159  A    between atoms: _395  and  _396
REMARK  160  A    between atoms: _395  and  _398
REMARK  161  A    between atoms: _398  and  _399
REMARK  162  A    between atoms: _405  and  _407
REMARK  163  A    between atoms: _407  and  _408
REMARK  164  A    between atoms: _407  and  _410
REMARK  165  A    between atoms: _410  and  _411
REMARK  166  A    between atoms: _414  and  _416
REMARK  167  A    between atoms: _416  and  _417
REMARK  168  A    between atoms: _416  and  _419
REMARK  169  A    between atoms: _419  and  _420
REMARK  170  A    between atoms: _423  and  _425
REMARK  171  A    between atoms: _425  and  _426
REMARK  172  A    between atoms: _425  and  _428
REMARK  173  A    between atoms: _428  and  _429
REMARK  174  A    between atoms: _429  and  _430
REMARK  175  A    between atoms: _430  and  _431
REMARK  176  A    between atoms: _440  and  _442
REMARK  177  A    between atoms: _442  and  _443
REMARK  178  A    between atoms: _442  and  _445
REMARK  179  A    between atoms: _445  and  _446
REMARK  180  A    between atoms: _451  and  _453
REMARK  181  A    between atoms: _453  and  _454
REMARK  182  A    between atoms: _457  and  _459
REMARK  183  A    between atoms: _459  and  _460
REMARK  184  A    between atoms: _459  and  _462
REMARK  185  A    between atoms: _462  and  _463
REMARK  186  A    between atoms: _466  and  _468
REMARK  187  A    between atoms: _468  and  _469
REMARK  188  A    between atoms: _472  and  _474
REMARK  189  A    between atoms: _474  and  _475
REMARK  190  A    between atoms: _474  and  _477
REMARK  191  A    between atoms: _477  and  _478
REMARK  192  A    between atoms: _483  and  _484
REMARK  193  A    between atoms: _486  and  _488
REMARK  194  A    between atoms: _488  and  _489
REMARK  195  A    between atoms: _492  and  _494
REMARK  196  A    between atoms: _494  and  _495
REMARK  197  A    between atoms: _494  and  _497
REMARK  198  A    between atoms: _497  and  _498
REMARK  199  A    between atoms: _501  and  _503
REMARK  200  A    between atoms: _503  and  _504
REMARK  201  A    between atoms: _503  and  _506
REMARK  202  A    between atoms: _506  and  _507
REMARK  203  A    between atoms: _507  and  _508
REMARK  204  A    between atoms: _508  and  _509
REMARK  205  A    between atoms: _509  and  _510
REMARK  206  A    between atoms: _514  and  _516
REMARK  207  A    between atoms: _516  and  _517
REMARK  208  A    between atoms: _516  and  _519
REMARK  209  A    between atoms: _519  and  _520
REMARK  210  A    between atoms: _525  and  _526
REMARK  211  A    between atoms: _528  and  _530
REMARK  212  A    between atoms: _530  and  _531
REMARK  213  A    between atoms: _530  and  _533
REMARK  214  A    between atoms: _533  and  _534
REMARK  215  A    between atoms: _539  and  _541
REMARK  216  A    between atoms: _541  and  _542
REMARK  217  A    between atoms: _544  and  _546
REMARK  218  A    between atoms: _546  and  _547
REMARK  219  A    between atoms: _546  and  _549
REMARK  220  A    between atoms: _549  and  _550
REMARK  221  A    between atoms: _553  and  _555
REMARK  222  A    between atoms: _555  and  _556
REMARK  223  A    between atoms: _555  and  _558
REMARK  224  A    between atoms: _561  and  _563
REMARK  225  A    between atoms: _563  and  _564
REMARK  226  A    between atoms: _563  and  _566
REMARK  227  A    between atoms: _566  and  _567
REMARK  228  A    between atoms: _570  and  _572
REMARK  229  A    between atoms: _572  and  _573
REMARK  230  A    between atoms: _572  and  _575
REMARK  231  A    between atoms: _575  and  _576
REMARK  232  A    between atoms: _582  and  _584
REMARK  233  A    between atoms: _584  and  _585
REMARK  234  A    between atoms: _584  and  _587
REMARK  235  A    between atoms: _587  and  _588
REMARK  236  A    between atoms: _588  and  _589
REMARK  237  A    between atoms: _594  and  _596
REMARK  238  A    between atoms: _596  and  _597
REMARK  239  A    between atoms: _600  and  _602
REMARK  240  A    between atoms: _602  and  _603
REMARK  241  A    between atoms: _606  and  _608
REMARK  242  A    between atoms: _608  and  _609
REMARK  243  A    between atoms: _608  and  _611
REMARK  244  A    between atoms: _611  and  _612
REMARK  245  A    between atoms: _615  and  _617
REMARK  246  A    between atoms: _617  and  _618
REMARK  247  A    between atoms: _617  and  _620
REMARK  248  A    between atoms: _620  and  _621
REMARK  249  A    between atoms: _626  and  _627
REMARK  250  A    between atoms: _629  and  _631
REMARK  251  A    between atoms: _631  and  _632
REMARK  252  A    between atoms: _635  and  _637
REMARK  253  A    between atoms: _637  and  _638
REMARK  254  A    between atoms: _642  and  _643
REMARK  255  A    between atoms: _648  and  _650
REMARK  256  A    between atoms: _650  and  _651
REMARK  257  A    between atoms: _650  and  _653
REMARK  258  A    between atoms: _653  and  _654
REMARK  259  A    between atoms: _660  and  _662
REMARK  260  A    between atoms: _662  and  _663
REMARK  261  A    between atoms: _662  and  _665
REMARK  262  A    between atoms: _665  and  _666
REMARK  263  A    between atoms: _669  and  _671
REMARK  264  A    between atoms: _671  and  _672
REMARK  265  A    between atoms: _671  and  _674
REMARK  266  A    between atoms: _674  and  _675
REMARK  267  A    between atoms: _681  and  _683
REMARK  268  A    between atoms: _683  and  _684
REMARK  269  A    between atoms: _683  and  _686
REMARK  270  A    between atoms: _686  and  _687
REMARK  271  A    between atoms: _692  and  _693
REMARK  272  A    between atoms: _695  and  _697
REMARK  273  A    between atoms: _697  and  _698
REMARK  274  A    between atoms: _697  and  _700
REMARK  275  A    between atoms: _700  and  _701
REMARK  276  A    between atoms: _706  and  _707
REMARK  277  A    between atoms: _709  and  _711
REMARK  278  A    between atoms: _711  and  _712
REMARK  279  A    between atoms: _711  and  _714
REMARK  280  A    between atoms: _714  and  _715
REMARK  281  A    between atoms: _715  and  _716
REMARK  282  A    between atoms: _716  and  _717
REMARK  283  A    between atoms: _717  and  _718
REMARK  284  A    between atoms: _722  and  _724
REMARK  285  A    between atoms: _724  and  _725
REMARK  286  A    between atoms: _724  and  _727
REMARK                            x       y       z     vdW  Elec       q    Type
REMARK                         _______ _______ _______ _____ _____    ______ ____
ROOT
ATOM      1  O   HOH     1      20.798   9.436  22.020  0.00  0.00    +0.000 OA
ENDROOT
TORSDOF 0
REMARK  Name = ../refined-set-2016/2euk/2euk_pocket.pdb
REMARK  286 active torsions:
REMARK  status: ('A' for Active; 'I' for Inactive)
REMARK    1  A    between atoms: _1  and  _5
REMARK    2  A    between atoms: _5  and  _6
REMARK    3  A    between atoms: _5  and  _8
REMARK    4  A    between atoms: _8  and  _9
REMARK    5  A    between atoms: _12  and  _14
REMARK    6  A    between atoms: _14  and  _15
REMARK    7  A    between atoms: _14  and  _17
REMARK    8  A    between atoms: _17  and  _18
REMARK    9  A    between atoms: _23  and  _25
REMARK   10  A    between atoms: _25  and  _26
REMARK   11  A    between atoms: _25  and  _28
REMARK   12  A    between atoms: _28  and  _29
REMARK   13  A    between atoms: _33  and  _34
REMARK   14  A    between atoms: _40  and  _41
REMARK   15  A    between atoms: _46  and  _48
REMARK   16  A    between atoms: _48  and  _49
REMARK   17  A    between atoms: _48  and  _51
REMARK   18  A    between atoms: _51  and  _52
REMARK   19  A    between atoms: _58  and  _60
REMARK   20  A    between atoms: _60  and  _61
REMARK   21  A    between atoms: _60  and  _63
REMARK   22  A    between atoms: _63  and  _64
REMARK   23  A    between atoms: _70  and  _72
REMARK   24  A    between atoms: _72  and  _73
REMARK   25  A    between atoms: _72  and  _75
REMARK   26  A    between atoms: _75  and  _76
REMARK   27  A    between atoms: _79  and  _81
REMARK   28  A    between atoms: _81  and  _82
REMARK   29  A    between atoms: _81  and  _84
REMARK   30  A    between atoms: _86  and  _88
REMARK   31  A    between atoms: _88  and  _89
REMARK   32  A    between atoms: _88  and  _91
REMARK   33  A    between atoms: _91  and  _92
REMARK   34  A    between atoms: _95  and  _97
REMARK   35  A    between atoms: _97  and  _98
REMARK   36  A    between atoms: _97  and  _100
REMARK   37  A    between atoms: _100  and  _101
REMARK   38  A    between atoms: _103  and  _105
REMARK   39  A    between atoms: _105  and  _106
REMARK   40  A    between atoms: _105  and  _108
REMARK   41  A    between atoms: _111  and  _113
REMARK   42  A    between atoms: _113  and  _114
REMARK   43  A    between atoms: _113  and  _116
REMARK   44  A    between atoms: _116  and  _117
REMARK   45  A    between atoms: _123  and  _125
REMARK   46  A    between atoms: _125  and  _126
REMARK   47  A    between atoms: _125  and  _128
REMARK   48  A    between atoms: _128  and  _129
REMARK   49  A    between atoms: _133  and  _134
REMARK   50  A    between atoms: _139  and  _141
REMARK   51  A    between atoms: _141  and  _142
REMARK   52  A    between atoms: _141  and  _144
REMARK   53  A    between atoms: _144  and  _145
REMARK   54  A    between atoms: _148  and  _150
REMARK   55  A    between atoms: _150  and  _151
REMARK   56  A    between atoms: _150  and  _153
REMARK   57  A    between atoms: _153  and  _154
REMARK   58  A    between atoms: _154  and  _155
REMARK   59  A    between atoms: _155  and  _156
REMARK   60  A    between atoms: _156  and  _157
REMARK   61  A    between atoms: _161  and  _163
REMARK   62  A    between atoms: _163  and  _164
REMARK   63  A    between atoms: _167  and  _169
REMARK   64  A    between atoms: _169  and  _170
REMARK   65  A    between atoms: _169  and  _172
REMARK   66  A    between atoms: _172  and  _173
REMARK   67  A    between atoms: _176  and  _178
REMARK   68  A    between atoms: _178  and  _179
REMARK   69  A    between atoms: _178  and  _181
REMARK   70  A    between atoms: _181  and  _182
REMARK   71  A    between atoms: _185  and  _187
REMARK   72  A    between atoms: _187  and  _188
REMARK   73  A    between atoms: _190  and  _192
REMARK   74  A    between atoms: _192  and  _193
REMARK   75  A    between atoms: _192  and  _195
REMARK   76  A    between atoms: _195  and  _196
REMARK   77  A    between atoms: _201  and  _203
REMARK   78  A    between atoms: _203  and  _204
REMARK   79  A    between atoms: _203  and  _206
REMARK   80  A    between atoms: _206  and  _207
REMARK   81  A    between atoms: _210  and  _212
REMARK   82  A    between atoms: _212  and  _213
REMARK   83  A    between atoms: _212  and  _215
REMARK   84  A    between atoms: _215  and  _216
REMARK   85  A    between atoms: _216  and  _217
REMARK   86  A    between atoms: _217  and  _218
REMARK   87  A    between atoms: _218  and  _219
REMARK   88  A    between atoms: _223  and  _225
REMARK   89  A    between atoms: _225  and  _226
REMARK   90  A    between atoms: _225  and  _228
REMARK   91  A    between atoms: _228  and  _229
REMARK   92  A    between atoms: _229  and  _230
REMARK   93  A    between atoms: _230  and  _231
REMARK   94  A    between atoms: _231  and  _232
REMARK   95  A    between atoms: _236  and  _238
REMARK   96  A    between atoms: _238  and  _239
REMARK   97  A    between atoms: _241  and  _243
REMARK   98  A    between atoms: _243  and  _244
REMARK   99  A    between atoms: _243  and  _246
REMARK  100  A    between atoms: _246  and  _247
REMARK  101  A    between atoms: _250  and  _252
REMARK  102  A    between atoms: _252  and  _253
REMARK  103  A    between atoms: _256  and  _258
REMARK  104  A    between atoms: _258  and  _259
REMARK  105  A    between atoms: _258  and  _261
REMARK  106  A    between atoms: _261  and  _262
REMARK  107  A    between atoms: _265  and  _267
REMARK  108  A    between atoms: _267  and  _268
REMARK  109  A    between atoms: _267  and  _270
REMARK  110  A    between atoms: _270  and  _271
REMARK  111  A    between atoms: _271  and  _272
REMARK  112  A    between atoms: _274  and  _276
REMARK  113  A    between atoms: _276  and  _277
REMARK  114  A    between atoms: _276  and  _279
REMARK  115  A    between atoms: _279  and  _280
REMARK  116  A    between atoms: _290  and  _292
REMARK  117  A    between atoms: _292  and  _293
REMARK  118  A    between atoms: _292  and  _295
REMARK  119  A    between atoms: _295  and  _296
REMARK  120  A    between atoms: _299  and  _301
REMARK  121  A    between atoms: _301  and  _302
REMARK  122  A    between atoms: _301  and  _304
REMARK  123  A    between atoms: _304  and  _305
REMARK  124  A    between atoms: _305  and  _306
REMARK  125  A    between atoms: _306  and  _307
REMARK  126  A    between atoms: _307  and  _308
REMARK  127  A    between atoms: _312  and  _314
REMARK  128  A    between atoms: _314  and  _315
REMARK  129  A    between atoms: _314  and  _317
REMARK  130  A    between atoms: _317  and  _318
REMARK  131  A    between atoms: _318  and  _319
REMARK  132  A    between atoms: _319  and  _320
REMARK  133  A    between atoms: _329  and  _331
REMARK  134  A    between atoms: _331  and  _332
REMARK  135  A    between atoms: _334  and  _336
REMARK  136  A    between atoms: _336  and  _337
REMARK  137  A    between atoms: _336  and  _339
REMARK  138  A    between atoms: _339  and  _340
REMARK  139  A    between atoms: _343  and  _345
REMARK  140  A    between atoms: _345  and  _346
REMARK  141  A    between atoms: _345  and  _348
REMARK  142  A    between atoms: _348  and  _349
REMARK  143  A    between atoms: _349  and  _350
REMARK  144  A    between atoms: _350  and  _351
REMARK  145  A    between atoms: _360  and  _362
REMARK  146  A    between atoms: _362  and  _363
REMARK  147  A    between atoms: _362  and  _365
REMARK  148  A    between atoms: _365  and  _366
REMARK  149  A    between atoms: _372  and  _374
REMARK  150  A    between atoms: _374  and  _375
REMARK  151  A    between atoms: _374  and  _377
REMARK  152  A    between atoms: _377  and  _378
REMARK  153  A    between atoms: _381  and  _383
REMARK  154  A    between atoms: _383  and  _384
REMARK  155  A    between atoms: _383  and  _386
REMARK  156  A    between atoms: _386  and  _387
REMARK  157  A    between atoms: _387  and  _388
REMARK  158  A    between atoms: _393  and  _395
REMARK  159  A    between atoms: _395  and  _396
REMARK  160  A    between atoms: _395  and  _398
REMARK  161  A    between atoms: _398  and  _399
REMARK  162  A    between atoms: _405  and  _407
REMARK  163  A    between atoms: _407  and  _408
REMARK  164  A    between atoms: _407  and  _410
REMARK  165  A    between atoms: _410  and  _411
REMARK  166  A    between atoms: _414  and  _416
REMARK  167  A    between atoms: _416  and  _417
REMARK  168  A    between atoms: _416  and  _419
REMARK  169  A    between atoms: _419  and  _420
REMARK  170  A    between atoms: _423  and  _425
REMARK  171  A    between atoms: _425  and  _426
REMARK  172  A    between atoms: _425  and  _428
REMARK  173  A    between atoms: _428  and  _429
REMARK  174  A    between atoms: _429  and  _430
REMARK  175  A    between atoms: _430  and  _431
REMARK  176  A    between atoms: _440  and  _442
REMARK  177  A    between atoms: _442  and  _443
REMARK  178  A    between atoms: _442  and  _445
REMARK  179  A    between atoms: _445  and  _446
REMARK  180  A    between atoms: _451  and  _453
REMARK  181  A    between atoms: _453  and  _454
REMARK  182  A    between atoms: _457  and  _459
REMARK  183  A    between atoms: _459  and  _460
REMARK  184  A    between atoms: _459  and  _462
REMARK  185  A    between atoms: _462  and  _463
REMARK  186  A    between atoms: _466  and  _468
REMARK  187  A    between atoms: _468  and  _469
REMARK  188  A    between atoms: _472  and  _474
REMARK  189  A    between atoms: _474  and  _475
REMARK  190  A    between atoms: _474  and  _477
REMARK  191  A    between atoms: _477  and  _478
REMARK  192  A    between atoms: _483  and  _484
REMARK  193  A    between atoms: _486  and  _488
REMARK  194  A    between atoms: _488  and  _489
REMARK  195  A    between atoms: _492  and  _494
REMARK  196  A    between atoms: _494  and  _495
REMARK  197  A    between atoms: _494  and  _497
REMARK  198  A    between atoms: _497  and  _498
REMARK  199  A    between atoms: _501  and  _503
REMARK  200  A    between atoms: _503  and  _504
REMARK  201  A    between atoms: _503  and  _506
REMARK  202  A    between atoms: _506  and  _507
REMARK  203  A    between atoms: _507  and  _508
REMARK  204  A    between atoms: _508  and  _509
REMARK  205  A    between atoms: _509  and  _510
REMARK  206  A    between atoms: _514  and  _516
REMARK  207  A    between atoms: _516  and  _517
REMARK  208  A    between atoms: _516  and  _519
REMARK  209  A    between atoms: _519  and  _520
REMARK  210  A    between atoms: _525  and  _526
REMARK  211  A    between atoms: _528  and  _530
REMARK  212  A    between atoms: _530  and  _531
REMARK  213  A    between atoms: _530  and  _533
REMARK  214  A    between atoms: _533  and  _534
REMARK  215  A    between atoms: _539  and  _541
REMARK  216  A    between atoms: _541  and  _542
REMARK  217  A    between atoms: _544  and  _546
REMARK  218  A    between atoms: _546  and  _547
REMARK  219  A    between atoms: _546  and  _549
REMARK  220  A    between atoms: _549  and  _550
REMARK  221  A    between atoms: _553  and  _555
REMARK  222  A    between atoms: _555  and  _556
REMARK  223  A    between atoms: _555  and  _558
REMARK  224  A    between atoms: _561  and  _563
REMARK  225  A    between atoms: _563  and  _564
REMARK  226  A    between atoms: _563  and  _566
REMARK  227  A    between atoms: _566  and  _567
REMARK  228  A    between atoms: _570  and  _572
REMARK  229  A    between atoms: _572  and  _573
REMARK  230  A    between atoms: _572  and  _575
REMARK  231  A    between atoms: _575  and  _576
REMARK  232  A    between atoms: _582  and  _584
REMARK  233  A    between atoms: _584  and  _585
REMARK  234  A    between atoms: _584  and  _587
REMARK  235  A    between atoms: _587  and  _588
REMARK  236  A    between atoms: _588  and  _589
REMARK  237  A    between atoms: _594  and  _596
REMARK  238  A    between atoms: _596  and  _597
REMARK  239  A    between atoms: _600  and  _602
REMARK  240  A    between atoms: _602  and  _603
REMARK  241  A    between atoms: _606  and  _608
REMARK  242  A    between atoms: _608  and  _609
REMARK  243  A    between atoms: _608  and  _611
REMARK  244  A    between atoms: _611  and  _612
REMARK  245  A    between atoms: _615  and  _617
REMARK  246  A    between atoms: _617  and  _618
REMARK  247  A    between atoms: _617  and  _620
REMARK  248  A    between atoms: _620  and  _621
REMARK  249  A    between atoms: _626  and  _627
REMARK  250  A    between atoms: _629  and  _631
REMARK  251  A    between atoms: _631  and  _632
REMARK  252  A    between atoms: _635  and  _637
REMARK  253  A    between atoms: _637  and  _638
REMARK  254  A    between atoms: _642  and  _643
REMARK  255  A    between atoms: _648  and  _650
REMARK  256  A    between atoms: _650  and  _651
REMARK  257  A    between atoms: _650  and  _653
REMARK  258  A    between atoms: _653  and  _654
REMARK  259  A    between atoms: _660  and  _662
REMARK  260  A    between atoms: _662  and  _663
REMARK  261  A    between atoms: _662  and  _665
REMARK  262  A    between atoms: _665  and  _666
REMARK  263  A    between atoms: _669  and  _671
REMARK  264  A    between atoms: _671  and  _672
REMARK  265  A    between atoms: _671  and  _674
REMARK  266  A    between atoms: _674  and  _675
REMARK  267  A    between atoms: _681  and  _683
REMARK  268  A    between atoms: _683  and  _684
REMARK  269  A    between atoms: _683  and  _686
REMARK  270  A    between atoms: _686  and  _687
REMARK  271  A    between atoms: _692  and  _693
REMARK  272  A    between atoms: _695  and  _697
REMARK  273  A    between atoms: _697  and  _698
REMARK  274  A    between atoms: _697  and  _700
REMARK  275  A    between atoms: _700  and  _701
REMARK  276  A    between atoms: _706  and  _707
REMARK  277  A    between atoms: _709  and  _711
REMARK  278  A    between atoms: _711  and  _712
REMARK  279  A    between atoms: _711  and  _714
REMARK  280  A    between atoms: _714  and  _715
REMARK  281  A    between atoms: _715  and  _716
REMARK  282  A    between atoms: _716  and  _717
REMARK  283  A    between atoms: _717  and  _718
REMARK  284  A    between atoms: _722  and  _724
REMARK  285  A    between atoms: _724  and  _725
REMARK  286  A    between atoms: _724  and  _727
REMARK                            x       y       z     vdW  Elec       q    Type
REMARK                         _______ _______ _______ _____ _____    ______ ____
ROOT
ATOM      1  O   HOH     1      25.415   7.707  15.578  0.00  0.00    +0.000 OA
ENDROOT
TORSDOF 0
REMARK  Name = ../refined-set-2016/2euk/2euk_pocket.pdb
REMARK  286 active torsions:
REMARK  status: ('A' for Active; 'I' for Inactive)
REMARK    1  A    between atoms: _1  and  _5
REMARK    2  A    between atoms: _5  and  _6
REMARK    3  A    between atoms: _5  and  _8
REMARK    4  A    between atoms: _8  and  _9
REMARK    5  A    between atoms: _12  and  _14
REMARK    6  A    between atoms: _14  and  _15
REMARK    7  A    between atoms: _14  and  _17
REMARK    8  A    between atoms: _17  and  _18
REMARK    9  A    between atoms: _23  and  _25
REMARK   10  A    between atoms: _25  and  _26
REMARK   11  A    between atoms: _25  and  _28
REMARK   12  A    between atoms: _28  and  _29
REMARK   13  A    between atoms: _33  and  _34
REMARK   14  A    between atoms: _40  and  _41
REMARK   15  A    between atoms: _46  and  _48
REMARK   16  A    between atoms: _48  and  _49
REMARK   17  A    between atoms: _48  and  _51
REMARK   18  A    between atoms: _51  and  _52
REMARK   19  A    between atoms: _58  and  _60
REMARK   20  A    between atoms: _60  and  _61
REMARK   21  A    between atoms: _60  and  _63
REMARK   22  A    between atoms: _63  and  _64
REMARK   23  A    between atoms: _70  and  _72
REMARK   24  A    between atoms: _72  and  _73
REMARK   25  A    between atoms: _72  and  _75
REMARK   26  A    between atoms: _75  and  _76
REMARK   27  A    between atoms: _79  and  _81
REMARK   28  A    between atoms: _81  and  _82
REMARK   29  A    between atoms: _81  and  _84
REMARK   30  A    between atoms: _86  and  _88
REMARK   31  A    between atoms: _88  and  _89
REMARK   32  A    between atoms: _88  and  _91
REMARK   33  A    between atoms: _91  and  _92
REMARK   34  A    between atoms: _95  and  _97
REMARK   35  A    between atoms: _97  and  _98
REMARK   36  A    between atoms: _97  and  _100
REMARK   37  A    between atoms: _100  and  _101
REMARK   38  A    between atoms: _103  and  _105
REMARK   39  A    between atoms: _105  and  _106
REMARK   40  A    between atoms: _105  and  _108
REMARK   41  A    between atoms: _111  and  _113
REMARK   42  A    between atoms: _113  and  _114
REMARK   43  A    between atoms: _113  and  _116
REMARK   44  A    between atoms: _116  and  _117
REMARK   45  A    between atoms: _123  and  _125
REMARK   46  A    between atoms: _125  and  _126
REMARK   47  A    between atoms: _125  and  _128
REMARK   48  A    between atoms: _128  and  _129
REMARK   49  A    between atoms: _133  and  _134
REMARK   50  A    between atoms: _139  and  _141
REMARK   51  A    between atoms: _141  and  _142
REMARK   52  A    between atoms: _141  and  _144
REMARK   53  A    between atoms: _144  and  _145
REMARK   54  A    between atoms: _148  and  _150
REMARK   55  A    between atoms: _150  and  _151
REMARK   56  A    between atoms: _150  and  _153
REMARK   57  A    between atoms: _153  and  _154
REMARK   58  A    between atoms: _154  and  _155
REMARK   59  A    between atoms: _155  and  _156
REMARK   60  A    between atoms: _156  and  _157
REMARK   61  A    between atoms: _161  and  _163
REMARK   62  A    between atoms: _163  and  _164
REMARK   63  A    between atoms: _167  and  _169
REMARK   64  A    between atoms: _169  and  _170
REMARK   65  A    between atoms: _169  and  _172
REMARK   66  A    between atoms: _172  and  _173
REMARK   67  A    between atoms: _176  and  _178
REMARK   68  A    between atoms: _178  and  _179
REMARK   69  A    between atoms: _178  and  _181
REMARK   70  A    between atoms: _181  and  _182
REMARK   71  A    between atoms: _185  and  _187
REMARK   72  A    between atoms: _187  and  _188
REMARK   73  A    between atoms: _190  and  _192
REMARK   74  A    between atoms: _192  and  _193
REMARK   75  A    between atoms: _192  and  _195
REMARK   76  A    between atoms: _195  and  _196
REMARK   77  A    between atoms: _201  and  _203
REMARK   78  A    between atoms: _203  and  _204
REMARK   79  A    between atoms: _203  and  _206
REMARK   80  A    between atoms: _206  and  _207
REMARK   81  A    between atoms: _210  and  _212
REMARK   82  A    between atoms: _212  and  _213
REMARK   83  A    between atoms: _212  and  _215
REMARK   84  A    between atoms: _215  and  _216
REMARK   85  A    between atoms: _216  and  _217
REMARK   86  A    between atoms: _217  and  _218
REMARK   87  A    between atoms: _218  and  _219
REMARK   88  A    between atoms: _223  and  _225
REMARK   89  A    between atoms: _225  and  _226
REMARK   90  A    between atoms: _225  and  _228
REMARK   91  A    between atoms: _228  and  _229
REMARK   92  A    between atoms: _229  and  _230
REMARK   93  A    between atoms: _230  and  _231
REMARK   94  A    between atoms: _231  and  _232
REMARK   95  A    between atoms: _236  and  _238
REMARK   96  A    between atoms: _238  and  _239
REMARK   97  A    between atoms: _241  and  _243
REMARK   98  A    between atoms: _243  and  _244
REMARK   99  A    between atoms: _243  and  _246
REMARK  100  A    between atoms: _246  and  _247
REMARK  101  A    between atoms: _250  and  _252
REMARK  102  A    between atoms: _252  and  _253
REMARK  103  A    between atoms: _256  and  _258
REMARK  104  A    between atoms: _258  and  _259
REMARK  105  A    between atoms: _258  and  _261
REMARK  106  A    between atoms: _261  and  _262
REMARK  107  A    between atoms: _265  and  _267
REMARK  108  A    between atoms: _267  and  _268
REMARK  109  A    between atoms: _267  and  _270
REMARK  110  A    between atoms: _270  and  _271
REMARK  111  A    between atoms: _271  and  _272
REMARK  112  A    between atoms: _274  and  _276
REMARK  113  A    between atoms: _276  and  _277
REMARK  114  A    between atoms: _276  and  _279
REMARK  115  A    between atoms: _279  and  _280
REMARK  116  A    between atoms: _290  and  _292
REMARK  117  A    between atoms: _292  and  _293
REMARK  118  A    between atoms: _292  and  _295
REMARK  119  A    between atoms: _295  and  _296
REMARK  120  A    between atoms: _299  and  _301
REMARK  121  A    between atoms: _301  and  _302
REMARK  122  A    between atoms: _301  and  _304
REMARK  123  A    between atoms: _304  and  _305
REMARK  124  A    between atoms: _305  and  _306
REMARK  125  A    between atoms: _306  and  _307
REMARK  126  A    between atoms: _307  and  _308
REMARK  127  A    between atoms: _312  and  _314
REMARK  128  A    between atoms: _314  and  _315
REMARK  129  A    between atoms: _314  and  _317
REMARK  130  A    between atoms: _317  and  _318
REMARK  131  A    between atoms: _318  and  _319
REMARK  132  A    between atoms: _319  and  _320
REMARK  133  A    between atoms: _329  and  _331
REMARK  134  A    between atoms: _331  and  _332
REMARK  135  A    between atoms: _334  and  _336
REMARK  136  A    between atoms: _336  and  _337
REMARK  137  A    between atoms: _336  and  _339
REMARK  138  A    between atoms: _339  and  _340
REMARK  139  A    between atoms: _343  and  _345
REMARK  140  A    between atoms: _345  and  _346
REMARK  141  A    between atoms: _345  and  _348
REMARK  142  A    between atoms: _348  and  _349
REMARK  143  A    between atoms: _349  and  _350
REMARK  144  A    between atoms: _350  and  _351
REMARK  145  A    between atoms: _360  and  _362
REMARK  146  A    between atoms: _362  and  _363
REMARK  147  A    between atoms: _362  and  _365
REMARK  148  A    between atoms: _365  and  _366
REMARK  149  A    between atoms: _372  and  _374
REMARK  150  A    between atoms: _374  and  _375
REMARK  151  A    between atoms: _374  and  _377
REMARK  152  A    between atoms: _377  and  _378
REMARK  153  A    between atoms: _381  and  _383
REMARK  154  A    between atoms: _383  and  _384
REMARK  155  A    between atoms: _383  and  _386
REMARK  156  A    between atoms: _386  and  _387
REMARK  157  A    between atoms: _387  and  _388
REMARK  158  A    between atoms: _393  and  _395
REMARK  159  A    between atoms: _395  and  _396
REMARK  160  A    between atoms: _395  and  _398
REMARK  161  A    between atoms: _398  and  _399
REMARK  162  A    between atoms: _405  and  _407
REMARK  163  A    between atoms: _407  and  _408
REMARK  164  A    between atoms: _407  and  _410
REMARK  165  A    between atoms: _410  and  _411
REMARK  166  A    between atoms: _414  and  _416
REMARK  167  A    between atoms: _416  and  _417
REMARK  168  A    between atoms: _416  and  _419
REMARK  169  A    between atoms: _419  and  _420
REMARK  170  A    between atoms: _423  and  _425
REMARK  171  A    between atoms: _425  and  _426
REMARK  172  A    between atoms: _425  and  _428
REMARK  173  A    between atoms: _428  and  _429
REMARK  174  A    between atoms: _429  and  _430
REMARK  175  A    between atoms: _430  and  _431
REMARK  176  A    between atoms: _440  and  _442
REMARK  177  A    between atoms: _442  and  _443
REMARK  178  A    between atoms: _442  and  _445
REMARK  179  A    between atoms: _445  and  _446
REMARK  180  A    between atoms: _451  and  _453
REMARK  181  A    between atoms: _453  and  _454
REMARK  182  A    between atoms: _457  and  _459
REMARK  183  A    between atoms: _459  and  _460
REMARK  184  A    between atoms: _459  and  _462
REMARK  185  A    between atoms: _462  and  _463
REMARK  186  A    between atoms: _466  and  _468
REMARK  187  A    between atoms: _468  and  _469
REMARK  188  A    between atoms: _472  and  _474
REMARK  189  A    between atoms: _474  and  _475
REMARK  190  A    between atoms: _474  and  _477
REMARK  191  A    between atoms: _477  and  _478
REMARK  192  A    between atoms: _483  and  _484
REMARK  193  A    between atoms: _486  and  _488
REMARK  194  A    between atoms: _488  and  _489
REMARK  195  A    between atoms: _492  and  _494
REMARK  196  A    between atoms: _494  and  _495
REMARK  197  A    between atoms: _494  and  _497
REMARK  198  A    between atoms: _497  and  _498
REMARK  199  A    between atoms: _501  and  _503
REMARK  200  A    between atoms: _503  and  _504
REMARK  201  A    between atoms: _503  and  _506
REMARK  202  A    between atoms: _506  and  _507
REMARK  203  A    between atoms: _507  and  _508
REMARK  204  A    between atoms: _508  and  _509
REMARK  205  A    between atoms: _509  and  _510
REMARK  206  A    between atoms: _514  and  _516
REMARK  207  A    between atoms: _516  and  _517
REMARK  208  A    between atoms: _516  and  _519
REMARK  209  A    between atoms: _519  and  _520
REMARK  210  A    between atoms: _525  and  _526
REMARK  211  A    between atoms: _528  and  _530
REMARK  212  A    between atoms: _530  and  _531
REMARK  213  A    between atoms: _530  and  _533
REMARK  214  A    between atoms: _533  and  _534
REMARK  215  A    between atoms: _539  and  _541
REMARK  216  A    between atoms: _541  and  _542
REMARK  217  A    between atoms: _544  and  _546
REMARK  218  A    between atoms: _546  and  _547
REMARK  219  A    between atoms: _546  and  _549
REMARK  220  A    between atoms: _549  and  _550
REMARK  221  A    between atoms: _553  and  _555
REMARK  222  A    between atoms: _555  and  _556
REMARK  223  A    between atoms: _555  and  _558
REMARK  224  A    between atoms: _561  and  _563
REMARK  225  A    between atoms: _563  and  _564
REMARK  226  A    between atoms: _563  and  _566
REMARK  227  A    between atoms: _566  and  _567
REMARK  228  A    between atoms: _570  and  _572
REMARK  229  A    between atoms: _572  and  _573
REMARK  230  A    between atoms: _572  and  _575
REMARK  231  A    between atoms: _575  and  _576
REMARK  232  A    between atoms: _582  and  _584
REMARK  233  A    between atoms: _584  and  _585
REMARK  234  A    between atoms: _584  and  _587
REMARK  235  A    between atoms: _587  and  _588
REMARK  236  A    between atoms: _588  and  _589
REMARK  237  A    between atoms: _594  and  _596
REMARK  238  A    between atoms: _596  and  _597
REMARK  239  A    between atoms: _600  and  _602
REMARK  240  A    between atoms: _602  and  _603
REMARK  241  A    between atoms: _606  and  _608
REMARK  242  A    between atoms: _608  and  _609
REMARK  243  A    between atoms: _608  and  _611
REMARK  244  A    between atoms: _611  and  _612
REMARK  245  A    between atoms: _615  and  _617
REMARK  246  A    between atoms: _617  and  _618
REMARK  247  A    between atoms: _617  and  _620
REMARK  248  A    between atoms: _620  and  _621
REMARK  249  A    between atoms: _626  and  _627
REMARK  250  A    between atoms: _629  and  _631
REMARK  251  A    between atoms: _631  and  _632
REMARK  252  A    between atoms: _635  and  _637
REMARK  253  A    between atoms: _637  and  _638
REMARK  254  A    between atoms: _642  and  _643
REMARK  255  A    between atoms: _648  and  _650
REMARK  256  A    between atoms: _650  and  _651
REMARK  257  A    between atoms: _650  and  _653
REMARK  258  A    between atoms: _653  and  _654
REMARK  259  A    between atoms: _660  and  _662
REMARK  260  A    between atoms: _662  and  _663
REMARK  261  A    between atoms: _662  and  _665
REMARK  262  A    between atoms: _665  and  _666
REMARK  263  A    between atoms: _669  and  _671
REMARK  264  A    between atoms: _671  and  _672
REMARK  265  A    between atoms: _671  and  _674
REMARK  266  A    between atoms: _674  and  _675
REMARK  267  A    between atoms: _681  and  _683
REMARK  268  A    between atoms: _683  and  _684
REMARK  269  A    between atoms: _683  and  _686
REMARK  270  A    between atoms: _686  and  _687
REMARK  271  A    between atoms: _692  and  _693
REMARK  272  A    between atoms: _695  and  _697
REMARK  273  A    between atoms: _697  and  _698
REMARK  274  A    between atoms: _697  and  _700
REMARK  275  A    between atoms: _700  and  _701
REMARK  276  A    between atoms: _706  and  _707
REMARK  277  A    between atoms: _709  and  _711
REMARK  278  A    between atoms: _711  and  _712
REMARK  279  A    between atoms: _711  and  _714
REMARK  280  A    between atoms: _714  and  _715
REMARK  281  A    between atoms: _715  and  _716
REMARK  282  A    between atoms: _716  and  _717
REMARK  283  A    between atoms: _717  and  _718
REMARK  284  A    between atoms: _722  and  _724
REMARK  285  A    between atoms: _724  and  _725
REMARK  286  A    between atoms: _724  and  _727
REMARK                            x       y       z     vdW  Elec       q    Type
REMARK                         _______ _______ _______ _____ _____    ______ ____
ROOT
ATOM      1  O   HOH     1      18.610   1.521  29.749  0.00  0.00    +0.000 OA
ENDROOT
TORSDOF 0
REMARK  Name = ../refined-set-2016/2euk/2euk_pocket.pdb
REMARK  286 active torsions:
REMARK  status: ('A' for Active; 'I' for Inactive)
REMARK    1  A    between atoms: _1  and  _5
REMARK    2  A    between atoms: _5  and  _6
REMARK    3  A    between atoms: _5  and  _8
REMARK    4  A    between atoms: _8  and  _9
REMARK    5  A    between atoms: _12  and  _14
REMARK    6  A    between atoms: _14  and  _15
REMARK    7  A    between atoms: _14  and  _17
REMARK    8  A    between atoms: _17  and  _18
REMARK    9  A    between atoms: _23  and  _25
REMARK   10  A    between atoms: _25  and  _26
REMARK   11  A    between atoms: _25  and  _28
REMARK   12  A    between atoms: _28  and  _29
REMARK   13  A    between atoms: _33  and  _34
REMARK   14  A    between atoms: _40  and  _41
REMARK   15  A    between atoms: _46  and  _48
REMARK   16  A    between atoms: _48  and  _49
REMARK   17  A    between atoms: _48  and  _51
REMARK   18  A    between atoms: _51  and  _52
REMARK   19  A    between atoms: _58  and  _60
REMARK   20  A    between atoms: _60  and  _61
REMARK   21  A    between atoms: _60  and  _63
REMARK   22  A    between atoms: _63  and  _64
REMARK   23  A    between atoms: _70  and  _72
REMARK   24  A    between atoms: _72  and  _73
REMARK   25  A    between atoms: _72  and  _75
REMARK   26  A    between atoms: _75  and  _76
REMARK   27  A    between atoms: _79  and  _81
REMARK   28  A    between atoms: _81  and  _82
REMARK   29  A    between atoms: _81  and  _84
REMARK   30  A    between atoms: _86  and  _88
REMARK   31  A    between atoms: _88  and  _89
REMARK   32  A    between atoms: _88  and  _91
REMARK   33  A    between atoms: _91  and  _92
REMARK   34  A    between atoms: _95  and  _97
REMARK   35  A    between atoms: _97  and  _98
REMARK   36  A    between atoms: _97  and  _100
REMARK   37  A    between atoms: _100  and  _101
REMARK   38  A    between atoms: _103  and  _105
REMARK   39  A    between atoms: _105  and  _106
REMARK   40  A    between atoms: _105  and  _108
REMARK   41  A    between atoms: _111  and  _113
REMARK   42  A    between atoms: _113  and  _114
REMARK   43  A    between atoms: _113  and  _116
REMARK   44  A    between atoms: _116  and  _117
REMARK   45  A    between atoms: _123  and  _125
REMARK   46  A    between atoms: _125  and  _126
REMARK   47  A    between atoms: _125  and  _128
REMARK   48  A    between atoms: _128  and  _129
REMARK   49  A    between atoms: _133  and  _134
REMARK   50  A    between atoms: _139  and  _141
REMARK   51  A    between atoms: _141  and  _142
REMARK   52  A    between atoms: _141  and  _144
REMARK   53  A    between atoms: _144  and  _145
REMARK   54  A    between atoms: _148  and  _150
REMARK   55  A    between atoms: _150  and  _151
REMARK   56  A    between atoms: _150  and  _153
REMARK   57  A    between atoms: _153  and  _154
REMARK   58  A    between atoms: _154  and  _155
REMARK   59  A    between atoms: _155  and  _156
REMARK   60  A    between atoms: _156  and  _157
REMARK   61  A    between atoms: _161  and  _163
REMARK   62  A    between atoms: _163  and  _164
REMARK   63  A    between atoms: _167  and  _169
REMARK   64  A    between atoms: _169  and  _170
REMARK   65  A    between atoms: _169  and  _172
REMARK   66  A    between atoms: _172  and  _173
REMARK   67  A    between atoms: _176  and  _178
REMARK   68  A    between atoms: _178  and  _179
REMARK   69  A    between atoms: _178  and  _181
REMARK   70  A    between atoms: _181  and  _182
REMARK   71  A    between atoms: _185  and  _187
REMARK   72  A    between atoms: _187  and  _188
REMARK   73  A    between atoms: _190  and  _192
REMARK   74  A    between atoms: _192  and  _193
REMARK   75  A    between atoms: _192  and  _195
REMARK   76  A    between atoms: _195  and  _196
REMARK   77  A    between atoms: _201  and  _203
REMARK   78  A    between atoms: _203  and  _204
REMARK   79  A    between atoms: _203  and  _206
REMARK   80  A    between atoms: _206  and  _207
REMARK   81  A    between atoms: _210  and  _212
REMARK   82  A    between atoms: _212  and  _213
REMARK   83  A    between atoms: _212  and  _215
REMARK   84  A    between atoms: _215  and  _216
REMARK   85  A    between atoms: _216  and  _217
REMARK   86  A    between atoms: _217  and  _218
REMARK   87  A    between atoms: _218  and  _219
REMARK   88  A    between atoms: _223  and  _225
REMARK   89  A    between atoms: _225  and  _226
REMARK   90  A    between atoms: _225  and  _228
REMARK   91  A    between atoms: _228  and  _229
REMARK   92  A    between atoms: _229  and  _230
REMARK   93  A    between atoms: _230  and  _231
REMARK   94  A    between atoms: _231  and  _232
REMARK   95  A    between atoms: _236  and  _238
REMARK   96  A    between atoms: _238  and  _239
REMARK   97  A    between atoms: _241  and  _243
REMARK   98  A    between atoms: _243  and  _244
REMARK   99  A    between atoms: _243  and  _246
REMARK  100  A    between atoms: _246  and  _247
REMARK  101  A    between atoms: _250  and  _252
REMARK  102  A    between atoms: _252  and  _253
REMARK  103  A    between atoms: _256  and  _258
REMARK  104  A    between atoms: _258  and  _259
REMARK  105  A    between atoms: _258  and  _261
REMARK  106  A    between atoms: _261  and  _262
REMARK  107  A    between atoms: _265  and  _267
REMARK  108  A    between atoms: _267  and  _268
REMARK  109  A    between atoms: _267  and  _270
REMARK  110  A    between atoms: _270  and  _271
REMARK  111  A    between atoms: _271  and  _272
REMARK  112  A    between atoms: _274  and  _276
REMARK  113  A    between atoms: _276  and  _277
REMARK  114  A    between atoms: _276  and  _279
REMARK  115  A    between atoms: _279  and  _280
REMARK  116  A    between atoms: _290  and  _292
REMARK  117  A    between atoms: _292  and  _293
REMARK  118  A    between atoms: _292  and  _295
REMARK  119  A    between atoms: _295  and  _296
REMARK  120  A    between atoms: _299  and  _301
REMARK  121  A    between atoms: _301  and  _302
REMARK  122  A    between atoms: _301  and  _304
REMARK  123  A    between atoms: _304  and  _305
REMARK  124  A    between atoms: _305  and  _306
REMARK  125  A    between atoms: _306  and  _307
REMARK  126  A    between atoms: _307  and  _308
REMARK  127  A    between atoms: _312  and  _314
REMARK  128  A    between atoms: _314  and  _315
REMARK  129  A    between atoms: _314  and  _317
REMARK  130  A    between atoms: _317  and  _318
REMARK  131  A    between atoms: _318  and  _319
REMARK  132  A    between atoms: _319  and  _320
REMARK  133  A    between atoms: _329  and  _331
REMARK  134  A    between atoms: _331  and  _332
REMARK  135  A    between atoms: _334  and  _336
REMARK  136  A    between atoms: _336  and  _337
REMARK  137  A    between atoms: _336  and  _339
REMARK  138  A    between atoms: _339  and  _340
REMARK  139  A    between atoms: _343  and  _345
REMARK  140  A    between atoms: _345  and  _346
REMARK  141  A    between atoms: _345  and  _348
REMARK  142  A    between atoms: _348  and  _349
REMARK  143  A    between atoms: _349  and  _350
REMARK  144  A    between atoms: _350  and  _351
REMARK  145  A    between atoms: _360  and  _362
REMARK  146  A    between atoms: _362  and  _363
REMARK  147  A    between atoms: _362  and  _365
REMARK  148  A    between atoms: _365  and  _366
REMARK  149  A    between atoms: _372  and  _374
REMARK  150  A    between atoms: _374  and  _375
REMARK  151  A    between atoms: _374  and  _377
REMARK  152  A    between atoms: _377  and  _378
REMARK  153  A    between atoms: _381  and  _383
REMARK  154  A    between atoms: _383  and  _384
REMARK  155  A    between atoms: _383  and  _386
REMARK  156  A    between atoms: _386  and  _387
REMARK  157  A    between atoms: _387  and  _388
REMARK  158  A    between atoms: _393  and  _395
REMARK  159  A    between atoms: _395  and  _396
REMARK  160  A    between atoms: _395  and  _398
REMARK  161  A    between atoms: _398  and  _399
REMARK  162  A    between atoms: _405  and  _407
REMARK  163  A    between atoms: _407  and  _408
REMARK  164  A    between atoms: _407  and  _410
REMARK  165  A    between atoms: _410  and  _411
REMARK  166  A    between atoms: _414  and  _416
REMARK  167  A    between atoms: _416  and  _417
REMARK  168  A    between atoms: _416  and  _419
REMARK  169  A    between atoms: _419  and  _420
REMARK  170  A    between atoms: _423  and  _425
REMARK  171  A    between atoms: _425  and  _426
REMARK  172  A    between atoms: _425  and  _428
REMARK  173  A    between atoms: _428  and  _429
REMARK  174  A    between atoms: _429  and  _430
REMARK  175  A    between atoms: _430  and  _431
REMARK  176  A    between atoms: _440  and  _442
REMARK  177  A    between atoms: _442  and  _443
REMARK  178  A    between atoms: _442  and  _445
REMARK  179  A    between atoms: _445  and  _446
REMARK  180  A    between atoms: _451  and  _453
REMARK  181  A    between atoms: _453  and  _454
REMARK  182  A    between atoms: _457  and  _459
REMARK  183  A    between atoms: _459  and  _460
REMARK  184  A    between atoms: _459  and  _462
REMARK  185  A    between atoms: _462  and  _463
REMARK  186  A    between atoms: _466  and  _468
REMARK  187  A    between atoms: _468  and  _469
REMARK  188  A    between atoms: _472  and  _474
REMARK  189  A    between atoms: _474  and  _475
REMARK  190  A    between atoms: _474  and  _477
REMARK  191  A    between atoms: _477  and  _478
REMARK  192  A    between atoms: _483  and  _484
REMARK  193  A    between atoms: _486  and  _488
REMARK  194  A    between atoms: _488  and  _489
REMARK  195  A    between atoms: _492  and  _494
REMARK  196  A    between atoms: _494  and  _495
REMARK  197  A    between atoms: _494  and  _497
REMARK  198  A    between atoms: _497  and  _498
REMARK  199  A    between atoms: _501  and  _503
REMARK  200  A    between atoms: _503  and  _504
REMARK  201  A    between atoms: _503  and  _506
REMARK  202  A    between atoms: _506  and  _507
REMARK  203  A    between atoms: _507  and  _508
REMARK  204  A    between atoms: _508  and  _509
REMARK  205  A    between atoms: _509  and  _510
REMARK  206  A    between atoms: _514  and  _516
REMARK  207  A    between atoms: _516  and  _517
REMARK  208  A    between atoms: _516  and  _519
REMARK  209  A    between atoms: _519  and  _520
REMARK  210  A    between atoms: _525  and  _526
REMARK  211  A    between atoms: _528  and  _530
REMARK  212  A    between atoms: _530  and  _531
REMARK  213  A    between atoms: _530  and  _533
REMARK  214  A    between atoms: _533  and  _534
REMARK  215  A    between atoms: _539  and  _541
REMARK  216  A    between atoms: _541  and  _542
REMARK  217  A    between atoms: _544  and  _546
REMARK  218  A    between atoms: _546  and  _547
REMARK  219  A    between atoms: _546  and  _549
REMARK  220  A    between atoms: _549  and  _550
REMARK  221  A    between atoms: _553  and  _555
REMARK  222  A    between atoms: _555  and  _556
REMARK  223  A    between atoms: _555  and  _558
REMARK  224  A    between atoms: _561  and  _563
REMARK  225  A    between atoms: _563  and  _564
REMARK  226  A    between atoms: _563  and  _566
REMARK  227  A    between atoms: _566  and  _567
REMARK  228  A    between atoms: _570  and  _572
REMARK  229  A    between atoms: _572  and  _573
REMARK  230  A    between atoms: _572  and  _575
REMARK  231  A    between atoms: _575  and  _576
REMARK  232  A    between atoms: _582  and  _584
REMARK  233  A    between atoms: _584  and  _585
REMARK  234  A    between atoms: _584  and  _587
REMARK  235  A    between atoms: _587  and  _588
REMARK  236  A    between atoms: _588  and  _589
REMARK  237  A    between atoms: _594  and  _596
REMARK  238  A    between atoms: _596  and  _597
REMARK  239  A    between atoms: _600  and  _602
REMARK  240  A    between atoms: _602  and  _603
REMARK  241  A    between atoms: _606  and  _608
REMARK  242  A    between atoms: _608  and  _609
REMARK  243  A    between atoms: _608  and  _611
REMARK  244  A    between atoms: _611  and  _612
REMARK  245  A    between atoms: _615  and  _617
REMARK  246  A    between atoms: _617  and  _618
REMARK  247  A    between atoms: _617  and  _620
REMARK  248  A    between atoms: _620  and  _621
REMARK  249  A    between atoms: _626  and  _627
REMARK  250  A    between atoms: _629  and  _631
REMARK  251  A    between atoms: _631  and  _632
REMARK  252  A    between atoms: _635  and  _637
REMARK  253  A    between atoms: _637  and  _638
REMARK  254  A    between atoms: _642  and  _643
REMARK  255  A    between atoms: _648  and  _650
REMARK  256  A    between atoms: _650  and  _651
REMARK  257  A    between atoms: _650  and  _653
REMARK  258  A    between atoms: _653  and  _654
REMARK  259  A    between atoms: _660  and  _662
REMARK  260  A    between atoms: _662  and  _663
REMARK  261  A    between atoms: _662  and  _665
REMARK  262  A    between atoms: _665  and  _666
REMARK  263  A    between atoms: _669  and  _671
REMARK  264  A    between atoms: _671  and  _672
REMARK  265  A    between atoms: _671  and  _674
REMARK  266  A    between atoms: _674  and  _675
REMARK  267  A    between atoms: _681  and  _683
REMARK  268  A    between atoms: _683  and  _684
REMARK  269  A    between atoms: _683  and  _686
REMARK  270  A    between atoms: _686  and  _687
REMARK  271  A    between atoms: _692  and  _693
REMARK  272  A    between atoms: _695  and  _697
REMARK  273  A    between atoms: _697  and  _698
REMARK  274  A    between atoms: _697  and  _700
REMARK  275  A    between atoms: _700  and  _701
REMARK  276  A    between atoms: _706  and  _707
REMARK  277  A    between atoms: _709  and  _711
REMARK  278  A    between atoms: _711  and  _712
REMARK  279  A    between atoms: _711  and  _714
REMARK  280  A    between atoms: _714  and  _715
REMARK  281  A    between atoms: _715  and  _716
REMARK  282  A    between atoms: _716  and  _717
REMARK  283  A    between atoms: _717  and  _718
REMARK  284  A    between atoms: _722  and  _724
REMARK  285  A    between atoms: _724  and  _725
REMARK  286  A    between atoms: _724  and  _727
REMARK                            x       y       z     vdW  Elec       q    Type
REMARK                         _______ _______ _______ _____ _____    ______ ____
ROOT
ATOM      1  O   HOH     1      19.579   0.289  25.755  0.00  0.00    +0.000 OA
ENDROOT
TORSDOF 0
REMARK  Name = ../refined-set-2016/2euk/2euk_pocket.pdb
REMARK  286 active torsions:
REMARK  status: ('A' for Active; 'I' for Inactive)
REMARK    1  A    between atoms: _1  and  _5
REMARK    2  A    between atoms: _5  and  _6
REMARK    3  A    between atoms: _5  and  _8
REMARK    4  A    between atoms: _8  and  _9
REMARK    5  A    between atoms: _12  and  _14
REMARK    6  A    between atoms: _14  and  _15
REMARK    7  A    between atoms: _14  and  _17
REMARK    8  A    between atoms: _17  and  _18
REMARK    9  A    between atoms: _23  and  _25
REMARK   10  A    between atoms: _25  and  _26
REMARK   11  A    between atoms: _25  and  _28
REMARK   12  A    between atoms: _28  and  _29
REMARK   13  A    between atoms: _33  and  _34
REMARK   14  A    between atoms: _40  and  _41
REMARK   15  A    between atoms: _46  and  _48
REMARK   16  A    between atoms: _48  and  _49
REMARK   17  A    between atoms: _48  and  _51
REMARK   18  A    between atoms: _51  and  _52
REMARK   19  A    between atoms: _58  and  _60
REMARK   20  A    between atoms: _60  and  _61
REMARK   21  A    between atoms: _60  and  _63
REMARK   22  A    between atoms: _63  and  _64
REMARK   23  A    between atoms: _70  and  _72
REMARK   24  A    between atoms: _72  and  _73
REMARK   25  A    between atoms: _72  and  _75
REMARK   26  A    between atoms: _75  and  _76
REMARK   27  A    between atoms: _79  and  _81
REMARK   28  A    between atoms: _81  and  _82
REMARK   29  A    between atoms: _81  and  _84
REMARK   30  A    between atoms: _86  and  _88
REMARK   31  A    between atoms: _88  and  _89
REMARK   32  A    between atoms: _88  and  _91
REMARK   33  A    between atoms: _91  and  _92
REMARK   34  A    between atoms: _95  and  _97
REMARK   35  A    between atoms: _97  and  _98
REMARK   36  A    between atoms: _97  and  _100
REMARK   37  A    between atoms: _100  and  _101
REMARK   38  A    between atoms: _103  and  _105
REMARK   39  A    between atoms: _105  and  _106
REMARK   40  A    between atoms: _105  and  _108
REMARK   41  A    between atoms: _111  and  _113
REMARK   42  A    between atoms: _113  and  _114
REMARK   43  A    between atoms: _113  and  _116
REMARK   44  A    between atoms: _116  and  _117
REMARK   45  A    between atoms: _123  and  _125
REMARK   46  A    between atoms: _125  and  _126
REMARK   47  A    between atoms: _125  and  _128
REMARK   48  A    between atoms: _128  and  _129
REMARK   49  A    between atoms: _133  and  _134
REMARK   50  A    between atoms: _139  and  _141
REMARK   51  A    between atoms: _141  and  _142
REMARK   52  A    between atoms: _141  and  _144
REMARK   53  A    between atoms: _144  and  _145
REMARK   54  A    between atoms: _148  and  _150
REMARK   55  A    between atoms: _150  and  _151
REMARK   56  A    between atoms: _150  and  _153
REMARK   57  A    between atoms: _153  and  _154
REMARK   58  A    between atoms: _154  and  _155
REMARK   59  A    between atoms: _155  and  _156
REMARK   60  A    between atoms: _156  and  _157
REMARK   61  A    between atoms: _161  and  _163
REMARK   62  A    between atoms: _163  and  _164
REMARK   63  A    between atoms: _167  and  _169
REMARK   64  A    between atoms: _169  and  _170
REMARK   65  A    between atoms: _169  and  _172
REMARK   66  A    between atoms: _172  and  _173
REMARK   67  A    between atoms: _176  and  _178
REMARK   68  A    between atoms: _178  and  _179
REMARK   69  A    between atoms: _178  and  _181
REMARK   70  A    between atoms: _181  and  _182
REMARK   71  A    between atoms: _185  and  _187
REMARK   72  A    between atoms: _187  and  _188
REMARK   73  A    between atoms: _190  and  _192
REMARK   74  A    between atoms: _192  and  _193
REMARK   75  A    between atoms: _192  and  _195
REMARK   76  A    between atoms: _195  and  _196
REMARK   77  A    between atoms: _201  and  _203
REMARK   78  A    between atoms: _203  and  _204
REMARK   79  A    between atoms: _203  and  _206
REMARK   80  A    between atoms: _206  and  _207
REMARK   81  A    between atoms: _210  and  _212
REMARK   82  A    between atoms: _212  and  _213
REMARK   83  A    between atoms: _212  and  _215
REMARK   84  A    between atoms: _215  and  _216
REMARK   85  A    between atoms: _216  and  _217
REMARK   86  A    between atoms: _217  and  _218
REMARK   87  A    between atoms: _218  and  _219
REMARK   88  A    between atoms: _223  and  _225
REMARK   89  A    between atoms: _225  and  _226
REMARK   90  A    between atoms: _225  and  _228
REMARK   91  A    between atoms: _228  and  _229
REMARK   92  A    between atoms: _229  and  _230
REMARK   93  A    between atoms: _230  and  _231
REMARK   94  A    between atoms: _231  and  _232
REMARK   95  A    between atoms: _236  and  _238
REMARK   96  A    between atoms: _238  and  _239
REMARK   97  A    between atoms: _241  and  _243
REMARK   98  A    between atoms: _243  and  _244
REMARK   99  A    between atoms: _243  and  _246
REMARK  100  A    between atoms: _246  and  _247
REMARK  101  A    between atoms: _250  and  _252
REMARK  102  A    between atoms: _252  and  _253
REMARK  103  A    between atoms: _256  and  _258
REMARK  104  A    between atoms: _258  and  _259
REMARK  105  A    between atoms: _258  and  _261
REMARK  106  A    between atoms: _261  and  _262
REMARK  107  A    between atoms: _265  and  _267
REMARK  108  A    between atoms: _267  and  _268
REMARK  109  A    between atoms: _267  and  _270
REMARK  110  A    between atoms: _270  and  _271
REMARK  111  A    between atoms: _271  and  _272
REMARK  112  A    between atoms: _274  and  _276
REMARK  113  A    between atoms: _276  and  _277
REMARK  114  A    between atoms: _276  and  _279
REMARK  115  A    between atoms: _279  and  _280
REMARK  116  A    between atoms: _290  and  _292
REMARK  117  A    between atoms: _292  and  _293
REMARK  118  A    between atoms: _292  and  _295
REMARK  119  A    between atoms: _295  and  _296
REMARK  120  A    between atoms: _299  and  _301
REMARK  121  A    between atoms: _301  and  _302
REMARK  122  A    between atoms: _301  and  _304
REMARK  123  A    between atoms: _304  and  _305
REMARK  124  A    between atoms: _305  and  _306
REMARK  125  A    between atoms: _306  and  _307
REMARK  126  A    between atoms: _307  and  _308
REMARK  127  A    between atoms: _312  and  _314
REMARK  128  A    between atoms: _314  and  _315
REMARK  129  A    between atoms: _314  and  _317
REMARK  130  A    between atoms: _317  and  _318
REMARK  131  A    between atoms: _318  and  _319
REMARK  132  A    between atoms: _319  and  _320
REMARK  133  A    between atoms: _329  and  _331
REMARK  134  A    between atoms: _331  and  _332
REMARK  135  A    between atoms: _334  and  _336
REMARK  136  A    between atoms: _336  and  _337
REMARK  137  A    between atoms: _336  and  _339
REMARK  138  A    between atoms: _339  and  _340
REMARK  139  A    between atoms: _343  and  _345
REMARK  140  A    between atoms: _345  and  _346
REMARK  141  A    between atoms: _345  and  _348
REMARK  142  A    between atoms: _348  and  _349
REMARK  143  A    between atoms: _349  and  _350
REMARK  144  A    between atoms: _350  and  _351
REMARK  145  A    between atoms: _360  and  _362
REMARK  146  A    between atoms: _362  and  _363
REMARK  147  A    between atoms: _362  and  _365
REMARK  148  A    between atoms: _365  and  _366
REMARK  149  A    between atoms: _372  and  _374
REMARK  150  A    between atoms: _374  and  _375
REMARK  151  A    between atoms: _374  and  _377
REMARK  152  A    between atoms: _377  and  _378
REMARK  153  A    between atoms: _381  and  _383
REMARK  154  A    between atoms: _383  and  _384
REMARK  155  A    between atoms: _383  and  _386
REMARK  156  A    between atoms: _386  and  _387
REMARK  157  A    between atoms: _387  and  _388
REMARK  158  A    between atoms: _393  and  _395
REMARK  159  A    between atoms: _395  and  _396
REMARK  160  A    between atoms: _395  and  _398
REMARK  161  A    between atoms: _398  and  _399
REMARK  162  A    between atoms: _405  and  _407
REMARK  163  A    between atoms: _407  and  _408
REMARK  164  A    between atoms: _407  and  _410
REMARK  165  A    between atoms: _410  and  _411
REMARK  166  A    between atoms: _414  and  _416
REMARK  167  A    between atoms: _416  and  _417
REMARK  168  A    between atoms: _416  and  _419
REMARK  169  A    between atoms: _419  and  _420
REMARK  170  A    between atoms: _423  and  _425
REMARK  171  A    between atoms: _425  and  _426
REMARK  172  A    between atoms: _425  and  _428
REMARK  173  A    between atoms: _428  and  _429
REMARK  174  A    between atoms: _429  and  _430
REMARK  175  A    between atoms: _430  and  _431
REMARK  176  A    between atoms: _440  and  _442
REMARK  177  A    between atoms: _442  and  _443
REMARK  178  A    between atoms: _442  and  _445
REMARK  179  A    between atoms: _445  and  _446
REMARK  180  A    between atoms: _451  and  _453
REMARK  181  A    between atoms: _453  and  _454
REMARK  182  A    between atoms: _457  and  _459
REMARK  183  A    between atoms: _459  and  _460
REMARK  184  A    between atoms: _459  and  _462
REMARK  185  A    between atoms: _462  and  _463
REMARK  186  A    between atoms: _466  and  _468
REMARK  187  A    between atoms: _468  and  _469
REMARK  188  A    between atoms: _472  and  _474
REMARK  189  A    between atoms: _474  and  _475
REMARK  190  A    between atoms: _474  and  _477
REMARK  191  A    between atoms: _477  and  _478
REMARK  192  A    between atoms: _483  and  _484
REMARK  193  A    between atoms: _486  and  _488
REMARK  194  A    between atoms: _488  and  _489
REMARK  195  A    between atoms: _492  and  _494
REMARK  196  A    between atoms: _494  and  _495
REMARK  197  A    between atoms: _494  and  _497
REMARK  198  A    between atoms: _497  and  _498
REMARK  199  A    between atoms: _501  and  _503
REMARK  200  A    between atoms: _503  and  _504
REMARK  201  A    between atoms: _503  and  _506
REMARK  202  A    between atoms: _506  and  _507
REMARK  203  A    between atoms: _507  and  _508
REMARK  204  A    between atoms: _508  and  _509
REMARK  205  A    between atoms: _509  and  _510
REMARK  206  A    between atoms: _514  and  _516
REMARK  207  A    between atoms: _516  and  _517
REMARK  208  A    between atoms: _516  and  _519
REMARK  209  A    between atoms: _519  and  _520
REMARK  210  A    between atoms: _525  and  _526
REMARK  211  A    between atoms: _528  and  _530
REMARK  212  A    between atoms: _530  and  _531
REMARK  213  A    between atoms: _530  and  _533
REMARK  214  A    between atoms: _533  and  _534
REMARK  215  A    between atoms: _539  and  _541
REMARK  216  A    between atoms: _541  and  _542
REMARK  217  A    between atoms: _544  and  _546
REMARK  218  A    between atoms: _546  and  _547
REMARK  219  A    between atoms: _546  and  _549
REMARK  220  A    between atoms: _549  and  _550
REMARK  221  A    between atoms: _553  and  _555
REMARK  222  A    between atoms: _555  and  _556
REMARK  223  A    between atoms: _555  and  _558
REMARK  224  A    between atoms: _561  and  _563
REMARK  225  A    between atoms: _563  and  _564
REMARK  226  A    between atoms: _563  and  _566
REMARK  227  A    between atoms: _566  and  _567
REMARK  228  A    between atoms: _570  and  _572
REMARK  229  A    between atoms: _572  and  _573
REMARK  230  A    between atoms: _572  and  _575
REMARK  231  A    between atoms: _575  and  _576
REMARK  232  A    between atoms: _582  and  _584
REMARK  233  A    between atoms: _584  and  _585
REMARK  234  A    between atoms: _584  and  _587
REMARK  235  A    between atoms: _587  and  _588
REMARK  236  A    between atoms: _588  and  _589
REMARK  237  A    between atoms: _594  and  _596
REMARK  238  A    between atoms: _596  and  _597
REMARK  239  A    between atoms: _600  and  _602
REMARK  240  A    between atoms: _602  and  _603
REMARK  241  A    between atoms: _606  and  _608
REMARK  242  A    between atoms: _608  and  _609
REMARK  243  A    between atoms: _608  and  _611
REMARK  244  A    between atoms: _611  and  _612
REMARK  245  A    between atoms: _615  and  _617
REMARK  246  A    between atoms: _617  and  _618
REMARK  247  A    between atoms: _617  and  _620
REMARK  248  A    between atoms: _620  and  _621
REMARK  249  A    between atoms: _626  and  _627
REMARK  250  A    between atoms: _629  and  _631
REMARK  251  A    between atoms: _631  and  _632
REMARK  252  A    between atoms: _635  and  _637
REMARK  253  A    between atoms: _637  and  _638
REMARK  254  A    between atoms: _642  and  _643
REMARK  255  A    between atoms: _648  and  _650
REMARK  256  A    between atoms: _650  and  _651
REMARK  257  A    between atoms: _650  and  _653
REMARK  258  A    between atoms: _653  and  _654
REMARK  259  A    between atoms: _660  and  _662
REMARK  260  A    between atoms: _662  and  _663
REMARK  261  A    between atoms: _662  and  _665
REMARK  262  A    between atoms: _665  and  _666
REMARK  263  A    between atoms: _669  and  _671
REMARK  264  A    between atoms: _671  and  _672
REMARK  265  A    between atoms: _671  and  _674
REMARK  266  A    between atoms: _674  and  _675
REMARK  267  A    between atoms: _681  and  _683
REMARK  268  A    between atoms: _683  and  _684
REMARK  269  A    between atoms: _683  and  _686
REMARK  270  A    between atoms: _686  and  _687
REMARK  271  A    between atoms: _692  and  _693
REMARK  272  A    between atoms: _695  and  _697
REMARK  273  A    between atoms: _697  and  _698
REMARK  274  A    between atoms: _697  and  _700
REMARK  275  A    between atoms: _700  and  _701
REMARK  276  A    between atoms: _706  and  _707
REMARK  277  A    between atoms: _709  and  _711
REMARK  278  A    between atoms: _711  and  _712
REMARK  279  A    between atoms: _711  and  _714
REMARK  280  A    between atoms: _714  and  _715
REMARK  281  A    between atoms: _715  and  _716
REMARK  282  A    between atoms: _716  and  _717
REMARK  283  A    between atoms: _717  and  _718
REMARK  284  A    between atoms: _722  and  _724
REMARK  285  A    between atoms: _724  and  _725
REMARK  286  A    between atoms: _724  and  _727
REMARK                            x       y       z     vdW  Elec       q    Type
REMARK                         _______ _______ _______ _____ _____    ______ ____
ROOT
ATOM      1  O   HOH     1      21.479   0.971  22.671  0.00  0.00    +0.000 OA
ENDROOT
TORSDOF 0
REMARK  Name = ../refined-set-2016/2euk/2euk_pocket.pdb
REMARK  286 active torsions:
REMARK  status: ('A' for Active; 'I' for Inactive)
REMARK    1  A    between atoms: _1  and  _5
REMARK    2  A    between atoms: _5  and  _6
REMARK    3  A    between atoms: _5  and  _8
REMARK    4  A    between atoms: _8  and  _9
REMARK    5  A    between atoms: _12  and  _14
REMARK    6  A    between atoms: _14  and  _15
REMARK    7  A    between atoms: _14  and  _17
REMARK    8  A    between atoms: _17  and  _18
REMARK    9  A    between atoms: _23  and  _25
REMARK   10  A    between atoms: _25  and  _26
REMARK   11  A    between atoms: _25  and  _28
REMARK   12  A    between atoms: _28  and  _29
REMARK   13  A    between atoms: _33  and  _34
REMARK   14  A    between atoms: _40  and  _41
REMARK   15  A    between atoms: _46  and  _48
REMARK   16  A    between atoms: _48  and  _49
REMARK   17  A    between atoms: _48  and  _51
REMARK   18  A    between atoms: _51  and  _52
REMARK   19  A    between atoms: _58  and  _60
REMARK   20  A    between atoms: _60  and  _61
REMARK   21  A    between atoms: _60  and  _63
REMARK   22  A    between atoms: _63  and  _64
REMARK   23  A    between atoms: _70  and  _72
REMARK   24  A    between atoms: _72  and  _73
REMARK   25  A    between atoms: _72  and  _75
REMARK   26  A    between atoms: _75  and  _76
REMARK   27  A    between atoms: _79  and  _81
REMARK   28  A    between atoms: _81  and  _82
REMARK   29  A    between atoms: _81  and  _84
REMARK   30  A    between atoms: _86  and  _88
REMARK   31  A    between atoms: _88  and  _89
REMARK   32  A    between atoms: _88  and  _91
REMARK   33  A    between atoms: _91  and  _92
REMARK   34  A    between atoms: _95  and  _97
REMARK   35  A    between atoms: _97  and  _98
REMARK   36  A    between atoms: _97  and  _100
REMARK   37  A    between atoms: _100  and  _101
REMARK   38  A    between atoms: _103  and  _105
REMARK   39  A    between atoms: _105  and  _106
REMARK   40  A    between atoms: _105  and  _108
REMARK   41  A    between atoms: _111  and  _113
REMARK   42  A    between atoms: _113  and  _114
REMARK   43  A    between atoms: _113  and  _116
REMARK   44  A    between atoms: _116  and  _117
REMARK   45  A    between atoms: _123  and  _125
REMARK   46  A    between atoms: _125  and  _126
REMARK   47  A    between atoms: _125  and  _128
REMARK   48  A    between atoms: _128  and  _129
REMARK   49  A    between atoms: _133  and  _134
REMARK   50  A    between atoms: _139  and  _141
REMARK   51  A    between atoms: _141  and  _142
REMARK   52  A    between atoms: _141  and  _144
REMARK   53  A    between atoms: _144  and  _145
REMARK   54  A    between atoms: _148  and  _150
REMARK   55  A    between atoms: _150  and  _151
REMARK   56  A    between atoms: _150  and  _153
REMARK   57  A    between atoms: _153  and  _154
REMARK   58  A    between atoms: _154  and  _155
REMARK   59  A    between atoms: _155  and  _156
REMARK   60  A    between atoms: _156  and  _157
REMARK   61  A    between atoms: _161  and  _163
REMARK   62  A    between atoms: _163  and  _164
REMARK   63  A    between atoms: _167  and  _169
REMARK   64  A    between atoms: _169  and  _170
REMARK   65  A    between atoms: _169  and  _172
REMARK   66  A    between atoms: _172  and  _173
REMARK   67  A    between atoms: _176  and  _178
REMARK   68  A    between atoms: _178  and  _179
REMARK   69  A    between atoms: _178  and  _181
REMARK   70  A    between atoms: _181  and  _182
REMARK   71  A    between atoms: _185  and  _187
REMARK   72  A    between atoms: _187  and  _188
REMARK   73  A    between atoms: _190  and  _192
REMARK   74  A    between atoms: _192  and  _193
REMARK   75  A    between atoms: _192  and  _195
REMARK   76  A    between atoms: _195  and  _196
REMARK   77  A    between atoms: _201  and  _203
REMARK   78  A    between atoms: _203  and  _204
REMARK   79  A    between atoms: _203  and  _206
REMARK   80  A    between atoms: _206  and  _207
REMARK   81  A    between atoms: _210  and  _212
REMARK   82  A    between atoms: _212  and  _213
REMARK   83  A    between atoms: _212  and  _215
REMARK   84  A    between atoms: _215  and  _216
REMARK   85  A    between atoms: _216  and  _217
REMARK   86  A    between atoms: _217  and  _218
REMARK   87  A    between atoms: _218  and  _219
REMARK   88  A    between atoms: _223  and  _225
REMARK   89  A    between atoms: _225  and  _226
REMARK   90  A    between atoms: _225  and  _228
REMARK   91  A    between atoms: _228  and  _229
REMARK   92  A    between atoms: _229  and  _230
REMARK   93  A    between atoms: _230  and  _231
REMARK   94  A    between atoms: _231  and  _232
REMARK   95  A    between atoms: _236  and  _238
REMARK   96  A    between atoms: _238  and  _239
REMARK   97  A    between atoms: _241  and  _243
REMARK   98  A    between atoms: _243  and  _244
REMARK   99  A    between atoms: _243  and  _246
REMARK  100  A    between atoms: _246  and  _247
REMARK  101  A    between atoms: _250  and  _252
REMARK  102  A    between atoms: _252  and  _253
REMARK  103  A    between atoms: _256  and  _258
REMARK  104  A    between atoms: _258  and  _259
REMARK  105  A    between atoms: _258  and  _261
REMARK  106  A    between atoms: _261  and  _262
REMARK  107  A    between atoms: _265  and  _267
REMARK  108  A    between atoms: _267  and  _268
REMARK  109  A    between atoms: _267  and  _270
REMARK  110  A    between atoms: _270  and  _271
REMARK  111  A    between atoms: _271  and  _272
REMARK  112  A    between atoms: _274  and  _276
REMARK  113  A    between atoms: _276  and  _277
REMARK  114  A    between atoms: _276  and  _279
REMARK  115  A    between atoms: _279  and  _280
REMARK  116  A    between atoms: _290  and  _292
REMARK  117  A    between atoms: _292  and  _293
REMARK  118  A    between atoms: _292  and  _295
REMARK  119  A    between atoms: _295  and  _296
REMARK  120  A    between atoms: _299  and  _301
REMARK  121  A    between atoms: _301  and  _302
REMARK  122  A    between atoms: _301  and  _304
REMARK  123  A    between atoms: _304  and  _305
REMARK  124  A    between atoms: _305  and  _306
REMARK  125  A    between atoms: _306  and  _307
REMARK  126  A    between atoms: _307  and  _308
REMARK  127  A    between atoms: _312  and  _314
REMARK  128  A    between atoms: _314  and  _315
REMARK  129  A    between atoms: _314  and  _317
REMARK  130  A    between atoms: _317  and  _318
REMARK  131  A    between atoms: _318  and  _319
REMARK  132  A    between atoms: _319  and  _320
REMARK  133  A    between atoms: _329  and  _331
REMARK  134  A    between atoms: _331  and  _332
REMARK  135  A    between atoms: _334  and  _336
REMARK  136  A    between atoms: _336  and  _337
REMARK  137  A    between atoms: _336  and  _339
REMARK  138  A    between atoms: _339  and  _340
REMARK  139  A    between atoms: _343  and  _345
REMARK  140  A    between atoms: _345  and  _346
REMARK  141  A    between atoms: _345  and  _348
REMARK  142  A    between atoms: _348  and  _349
REMARK  143  A    between atoms: _349  and  _350
REMARK  144  A    between atoms: _350  and  _351
REMARK  145  A    between atoms: _360  and  _362
REMARK  146  A    between atoms: _362  and  _363
REMARK  147  A    between atoms: _362  and  _365
REMARK  148  A    between atoms: _365  and  _366
REMARK  149  A    between atoms: _372  and  _374
REMARK  150  A    between atoms: _374  and  _375
REMARK  151  A    between atoms: _374  and  _377
REMARK  152  A    between atoms: _377  and  _378
REMARK  153  A    between atoms: _381  and  _383
REMARK  154  A    between atoms: _383  and  _384
REMARK  155  A    between atoms: _383  and  _386
REMARK  156  A    between atoms: _386  and  _387
REMARK  157  A    between atoms: _387  and  _388
REMARK  158  A    between atoms: _393  and  _395
REMARK  159  A    between atoms: _395  and  _396
REMARK  160  A    between atoms: _395  and  _398
REMARK  161  A    between atoms: _398  and  _399
REMARK  162  A    between atoms: _405  and  _407
REMARK  163  A    between atoms: _407  and  _408
REMARK  164  A    between atoms: _407  and  _410
REMARK  165  A    between atoms: _410  and  _411
REMARK  166  A    between atoms: _414  and  _416
REMARK  167  A    between atoms: _416  and  _417
REMARK  168  A    between atoms: _416  and  _419
REMARK  169  A    between atoms: _419  and  _420
REMARK  170  A    between atoms: _423  and  _425
REMARK  171  A    between atoms: _425  and  _426
REMARK  172  A    between atoms: _425  and  _428
REMARK  173  A    between atoms: _428  and  _429
REMARK  174  A    between atoms: _429  and  _430
REMARK  175  A    between atoms: _430  and  _431
REMARK  176  A    between atoms: _440  and  _442
REMARK  177  A    between atoms: _442  and  _443
REMARK  178  A    between atoms: _442  and  _445
REMARK  179  A    between atoms: _445  and  _446
REMARK  180  A    between atoms: _451  and  _453
REMARK  181  A    between atoms: _453  and  _454
REMARK  182  A    between atoms: _457  and  _459
REMARK  183  A    between atoms: _459  and  _460
REMARK  184  A    between atoms: _459  and  _462
REMARK  185  A    between atoms: _462  and  _463
REMARK  186  A    between atoms: _466  and  _468
REMARK  187  A    between atoms: _468  and  _469
REMARK  188  A    between atoms: _472  and  _474
REMARK  189  A    between atoms: _474  and  _475
REMARK  190  A    between atoms: _474  and  _477
REMARK  191  A    between atoms: _477  and  _478
REMARK  192  A    between atoms: _483  and  _484
REMARK  193  A    between atoms: _486  and  _488
REMARK  194  A    between atoms: _488  and  _489
REMARK  195  A    between atoms: _492  and  _494
REMARK  196  A    between atoms: _494  and  _495
REMARK  197  A    between atoms: _494  and  _497
REMARK  198  A    between atoms: _497  and  _498
REMARK  199  A    between atoms: _501  and  _503
REMARK  200  A    between atoms: _503  and  _504
REMARK  201  A    between atoms: _503  and  _506
REMARK  202  A    between atoms: _506  and  _507
REMARK  203  A    between atoms: _507  and  _508
REMARK  204  A    between atoms: _508  and  _509
REMARK  205  A    between atoms: _509  and  _510
REMARK  206  A    between atoms: _514  and  _516
REMARK  207  A    between atoms: _516  and  _517
REMARK  208  A    between atoms: _516  and  _519
REMARK  209  A    between atoms: _519  and  _520
REMARK  210  A    between atoms: _525  and  _526
REMARK  211  A    between atoms: _528  and  _530
REMARK  212  A    between atoms: _530  and  _531
REMARK  213  A    between atoms: _530  and  _533
REMARK  214  A    between atoms: _533  and  _534
REMARK  215  A    between atoms: _539  and  _541
REMARK  216  A    between atoms: _541  and  _542
REMARK  217  A    between atoms: _544  and  _546
REMARK  218  A    between atoms: _546  and  _547
REMARK  219  A    between atoms: _546  and  _549
REMARK  220  A    between atoms: _549  and  _550
REMARK  221  A    between atoms: _553  and  _555
REMARK  222  A    between atoms: _555  and  _556
REMARK  223  A    between atoms: _555  and  _558
REMARK  224  A    between atoms: _561  and  _563
REMARK  225  A    between atoms: _563  and  _564
REMARK  226  A    between atoms: _563  and  _566
REMARK  227  A    between atoms: _566  and  _567
REMARK  228  A    between atoms: _570  and  _572
REMARK  229  A    between atoms: _572  and  _573
REMARK  230  A    between atoms: _572  and  _575
REMARK  231  A    between atoms: _575  and  _576
REMARK  232  A    between atoms: _582  and  _584
REMARK  233  A    between atoms: _584  and  _585
REMARK  234  A    between atoms: _584  and  _587
REMARK  235  A    between atoms: _587  and  _588
REMARK  236  A    between atoms: _588  and  _589
REMARK  237  A    between atoms: _594  and  _596
REMARK  238  A    between atoms: _596  and  _597
REMARK  239  A    between atoms: _600  and  _602
REMARK  240  A    between atoms: _602  and  _603
REMARK  241  A    between atoms: _606  and  _608
REMARK  242  A    between atoms: _608  and  _609
REMARK  243  A    between atoms: _608  and  _611
REMARK  244  A    between atoms: _611  and  _612
REMARK  245  A    between atoms: _615  and  _617
REMARK  246  A    between atoms: _617  and  _618
REMARK  247  A    between atoms: _617  and  _620
REMARK  248  A    between atoms: _620  and  _621
REMARK  249  A    between atoms: _626  and  _627
REMARK  250  A    between atoms: _629  and  _631
REMARK  251  A    between atoms: _631  and  _632
REMARK  252  A    between atoms: _635  and  _637
REMARK  253  A    between atoms: _637  and  _638
REMARK  254  A    between atoms: _642  and  _643
REMARK  255  A    between atoms: _648  and  _650
REMARK  256  A    between atoms: _650  and  _651
REMARK  257  A    between atoms: _650  and  _653
REMARK  258  A    between atoms: _653  and  _654
REMARK  259  A    between atoms: _660  and  _662
REMARK  260  A    between atoms: _662  and  _663
REMARK  261  A    between atoms: _662  and  _665
REMARK  262  A    between atoms: _665  and  _666
REMARK  263  A    between atoms: _669  and  _671
REMARK  264  A    between atoms: _671  and  _672
REMARK  265  A    between atoms: _671  and  _674
REMARK  266  A    between atoms: _674  and  _675
REMARK  267  A    between atoms: _681  and  _683
REMARK  268  A    between atoms: _683  and  _684
REMARK  269  A    between atoms: _683  and  _686
REMARK  270  A    between atoms: _686  and  _687
REMARK  271  A    between atoms: _692  and  _693
REMARK  272  A    between atoms: _695  and  _697
REMARK  273  A    between atoms: _697  and  _698
REMARK  274  A    between atoms: _697  and  _700
REMARK  275  A    between atoms: _700  and  _701
REMARK  276  A    between atoms: _706  and  _707
REMARK  277  A    between atoms: _709  and  _711
REMARK  278  A    between atoms: _711  and  _712
REMARK  279  A    between atoms: _711  and  _714
REMARK  280  A    between atoms: _714  and  _715
REMARK  281  A    between atoms: _715  and  _716
REMARK  282  A    between atoms: _716  and  _717
REMARK  283  A    between atoms: _717  and  _718
REMARK  284  A    between atoms: _722  and  _724
REMARK  285  A    between atoms: _724  and  _725
REMARK  286  A    between atoms: _724  and  _727
REMARK                            x       y       z     vdW  Elec       q    Type
REMARK                         _______ _______ _______ _____ _____    ______ ____
ROOT
ATOM      1  O   HOH     1       4.916  -8.072  31.029  0.00  0.00    +0.000 OA
ENDROOT
TORSDOF 0
REMARK  Name = ../refined-set-2016/2euk/2euk_pocket.pdb
REMARK  286 active torsions:
REMARK  status: ('A' for Active; 'I' for Inactive)
REMARK    1  A    between atoms: _1  and  _5
REMARK    2  A    between atoms: _5  and  _6
REMARK    3  A    between atoms: _5  and  _8
REMARK    4  A    between atoms: _8  and  _9
REMARK    5  A    between atoms: _12  and  _14
REMARK    6  A    between atoms: _14  and  _15
REMARK    7  A    between atoms: _14  and  _17
REMARK    8  A    between atoms: _17  and  _18
REMARK    9  A    between atoms: _23  and  _25
REMARK   10  A    between atoms: _25  and  _26
REMARK   11  A    between atoms: _25  and  _28
REMARK   12  A    between atoms: _28  and  _29
REMARK   13  A    between atoms: _33  and  _34
REMARK   14  A    between atoms: _40  and  _41
REMARK   15  A    between atoms: _46  and  _48
REMARK   16  A    between atoms: _48  and  _49
REMARK   17  A    between atoms: _48  and  _51
REMARK   18  A    between atoms: _51  and  _52
REMARK   19  A    between atoms: _58  and  _60
REMARK   20  A    between atoms: _60  and  _61
REMARK   21  A    between atoms: _60  and  _63
REMARK   22  A    between atoms: _63  and  _64
REMARK   23  A    between atoms: _70  and  _72
REMARK   24  A    between atoms: _72  and  _73
REMARK   25  A    between atoms: _72  and  _75
REMARK   26  A    between atoms: _75  and  _76
REMARK   27  A    between atoms: _79  and  _81
REMARK   28  A    between atoms: _81  and  _82
REMARK   29  A    between atoms: _81  and  _84
REMARK   30  A    between atoms: _86  and  _88
REMARK   31  A    between atoms: _88  and  _89
REMARK   32  A    between atoms: _88  and  _91
REMARK   33  A    between atoms: _91  and  _92
REMARK   34  A    between atoms: _95  and  _97
REMARK   35  A    between atoms: _97  and  _98
REMARK   36  A    between atoms: _97  and  _100
REMARK   37  A    between atoms: _100  and  _101
REMARK   38  A    between atoms: _103  and  _105
REMARK   39  A    between atoms: _105  and  _106
REMARK   40  A    between atoms: _105  and  _108
REMARK   41  A    between atoms: _111  and  _113
REMARK   42  A    between atoms: _113  and  _114
REMARK   43  A    between atoms: _113  and  _116
REMARK   44  A    between atoms: _116  and  _117
REMARK   45  A    between atoms: _123  and  _125
REMARK   46  A    between atoms: _125  and  _126
REMARK   47  A    between atoms: _125  and  _128
REMARK   48  A    between atoms: _128  and  _129
REMARK   49  A    between atoms: _133  and  _134
REMARK   50  A    between atoms: _139  and  _141
REMARK   51  A    between atoms: _141  and  _142
REMARK   52  A    between atoms: _141  and  _144
REMARK   53  A    between atoms: _144  and  _145
REMARK   54  A    between atoms: _148  and  _150
REMARK   55  A    between atoms: _150  and  _151
REMARK   56  A    between atoms: _150  and  _153
REMARK   57  A    between atoms: _153  and  _154
REMARK   58  A    between atoms: _154  and  _155
REMARK   59  A    between atoms: _155  and  _156
REMARK   60  A    between atoms: _156  and  _157
REMARK   61  A    between atoms: _161  and  _163
REMARK   62  A    between atoms: _163  and  _164
REMARK   63  A    between atoms: _167  and  _169
REMARK   64  A    between atoms: _169  and  _170
REMARK   65  A    between atoms: _169  and  _172
REMARK   66  A    between atoms: _172  and  _173
REMARK   67  A    between atoms: _176  and  _178
REMARK   68  A    between atoms: _178  and  _179
REMARK   69  A    between atoms: _178  and  _181
REMARK   70  A    between atoms: _181  and  _182
REMARK   71  A    between atoms: _185  and  _187
REMARK   72  A    between atoms: _187  and  _188
REMARK   73  A    between atoms: _190  and  _192
REMARK   74  A    between atoms: _192  and  _193
REMARK   75  A    between atoms: _192  and  _195
REMARK   76  A    between atoms: _195  and  _196
REMARK   77  A    between atoms: _201  and  _203
REMARK   78  A    between atoms: _203  and  _204
REMARK   79  A    between atoms: _203  and  _206
REMARK   80  A    between atoms: _206  and  _207
REMARK   81  A    between atoms: _210  and  _212
REMARK   82  A    between atoms: _212  and  _213
REMARK   83  A    between atoms: _212  and  _215
REMARK   84  A    between atoms: _215  and  _216
REMARK   85  A    between atoms: _216  and  _217
REMARK   86  A    between atoms: _217  and  _218
REMARK   87  A    between atoms: _218  and  _219
REMARK   88  A    between atoms: _223  and  _225
REMARK   89  A    between atoms: _225  and  _226
REMARK   90  A    between atoms: _225  and  _228
REMARK   91  A    between atoms: _228  and  _229
REMARK   92  A    between atoms: _229  and  _230
REMARK   93  A    between atoms: _230  and  _231
REMARK   94  A    between atoms: _231  and  _232
REMARK   95  A    between atoms: _236  and  _238
REMARK   96  A    between atoms: _238  and  _239
REMARK   97  A    between atoms: _241  and  _243
REMARK   98  A    between atoms: _243  and  _244
REMARK   99  A    between atoms: _243  and  _246
REMARK  100  A    between atoms: _246  and  _247
REMARK  101  A    between atoms: _250  and  _252
REMARK  102  A    between atoms: _252  and  _253
REMARK  103  A    between atoms: _256  and  _258
REMARK  104  A    between atoms: _258  and  _259
REMARK  105  A    between atoms: _258  and  _261
REMARK  106  A    between atoms: _261  and  _262
REMARK  107  A    between atoms: _265  and  _267
REMARK  108  A    between atoms: _267  and  _268
REMARK  109  A    between atoms: _267  and  _270
REMARK  110  A    between atoms: _270  and  _271
REMARK  111  A    between atoms: _271  and  _272
REMARK  112  A    between atoms: _274  and  _276
REMARK  113  A    between atoms: _276  and  _277
REMARK  114  A    between atoms: _276  and  _279
REMARK  115  A    between atoms: _279  and  _280
REMARK  116  A    between atoms: _290  and  _292
REMARK  117  A    between atoms: _292  and  _293
REMARK  118  A    between atoms: _292  and  _295
REMARK  119  A    between atoms: _295  and  _296
REMARK  120  A    between atoms: _299  and  _301
REMARK  121  A    between atoms: _301  and  _302
REMARK  122  A    between atoms: _301  and  _304
REMARK  123  A    between atoms: _304  and  _305
REMARK  124  A    between atoms: _305  and  _306
REMARK  125  A    between atoms: _306  and  _307
REMARK  126  A    between atoms: _307  and  _308
REMARK  127  A    between atoms: _312  and  _314
REMARK  128  A    between atoms: _314  and  _315
REMARK  129  A    between atoms: _314  and  _317
REMARK  130  A    between atoms: _317  and  _318
REMARK  131  A    between atoms: _318  and  _319
REMARK  132  A    between atoms: _319  and  _320
REMARK  133  A    between atoms: _329  and  _331
REMARK  134  A    between atoms: _331  and  _332
REMARK  135  A    between atoms: _334  and  _336
REMARK  136  A    between atoms: _336  and  _337
REMARK  137  A    between atoms: _336  and  _339
REMARK  138  A    between atoms: _339  and  _340
REMARK  139  A    between atoms: _343  and  _345
REMARK  140  A    between atoms: _345  and  _346
REMARK  141  A    between atoms: _345  and  _348
REMARK  142  A    between atoms: _348  and  _349
REMARK  143  A    between atoms: _349  and  _350
REMARK  144  A    between atoms: _350  and  _351
REMARK  145  A    between atoms: _360  and  _362
REMARK  146  A    between atoms: _362  and  _363
REMARK  147  A    between atoms: _362  and  _365
REMARK  148  A    between atoms: _365  and  _366
REMARK  149  A    between atoms: _372  and  _374
REMARK  150  A    between atoms: _374  and  _375
REMARK  151  A    between atoms: _374  and  _377
REMARK  152  A    between atoms: _377  and  _378
REMARK  153  A    between atoms: _381  and  _383
REMARK  154  A    between atoms: _383  and  _384
REMARK  155  A    between atoms: _383  and  _386
REMARK  156  A    between atoms: _386  and  _387
REMARK  157  A    between atoms: _387  and  _388
REMARK  158  A    between atoms: _393  and  _395
REMARK  159  A    between atoms: _395  and  _396
REMARK  160  A    between atoms: _395  and  _398
REMARK  161  A    between atoms: _398  and  _399
REMARK  162  A    between atoms: _405  and  _407
REMARK  163  A    between atoms: _407  and  _408
REMARK  164  A    between atoms: _407  and  _410
REMARK  165  A    between atoms: _410  and  _411
REMARK  166  A    between atoms: _414  and  _416
REMARK  167  A    between atoms: _416  and  _417
REMARK  168  A    between atoms: _416  and  _419
REMARK  169  A    between atoms: _419  and  _420
REMARK  170  A    between atoms: _423  and  _425
REMARK  171  A    between atoms: _425  and  _426
REMARK  172  A    between atoms: _425  and  _428
REMARK  173  A    between atoms: _428  and  _429
REMARK  174  A    between atoms: _429  and  _430
REMARK  175  A    between atoms: _430  and  _431
REMARK  176  A    between atoms: _440  and  _442
REMARK  177  A    between atoms: _442  and  _443
REMARK  178  A    between atoms: _442  and  _445
REMARK  179  A    between atoms: _445  and  _446
REMARK  180  A    between atoms: _451  and  _453
REMARK  181  A    between atoms: _453  and  _454
REMARK  182  A    between atoms: _457  and  _459
REMARK  183  A    between atoms: _459  and  _460
REMARK  184  A    between atoms: _459  and  _462
REMARK  185  A    between atoms: _462  and  _463
REMARK  186  A    between atoms: _466  and  _468
REMARK  187  A    between atoms: _468  and  _469
REMARK  188  A    between atoms: _472  and  _474
REMARK  189  A    between atoms: _474  and  _475
REMARK  190  A    between atoms: _474  and  _477
REMARK  191  A    between atoms: _477  and  _478
REMARK  192  A    between atoms: _483  and  _484
REMARK  193  A    between atoms: _486  and  _488
REMARK  194  A    between atoms: _488  and  _489
REMARK  195  A    between atoms: _492  and  _494
REMARK  196  A    between atoms: _494  and  _495
REMARK  197  A    between atoms: _494  and  _497
REMARK  198  A    between atoms: _497  and  _498
REMARK  199  A    between atoms: _501  and  _503
REMARK  200  A    between atoms: _503  and  _504
REMARK  201  A    between atoms: _503  and  _506
REMARK  202  A    between atoms: _506  and  _507
REMARK  203  A    between atoms: _507  and  _508
REMARK  204  A    between atoms: _508  and  _509
REMARK  205  A    between atoms: _509  and  _510
REMARK  206  A    between atoms: _514  and  _516
REMARK  207  A    between atoms: _516  and  _517
REMARK  208  A    between atoms: _516  and  _519
REMARK  209  A    between atoms: _519  and  _520
REMARK  210  A    between atoms: _525  and  _526
REMARK  211  A    between atoms: _528  and  _530
REMARK  212  A    between atoms: _530  and  _531
REMARK  213  A    between atoms: _530  and  _533
REMARK  214  A    between atoms: _533  and  _534
REMARK  215  A    between atoms: _539  and  _541
REMARK  216  A    between atoms: _541  and  _542
REMARK  217  A    between atoms: _544  and  _546
REMARK  218  A    between atoms: _546  and  _547
REMARK  219  A    between atoms: _546  and  _549
REMARK  220  A    between atoms: _549  and  _550
REMARK  221  A    between atoms: _553  and  _555
REMARK  222  A    between atoms: _555  and  _556
REMARK  223  A    between atoms: _555  and  _558
REMARK  224  A    between atoms: _561  and  _563
REMARK  225  A    between atoms: _563  and  _564
REMARK  226  A    between atoms: _563  and  _566
REMARK  227  A    between atoms: _566  and  _567
REMARK  228  A    between atoms: _570  and  _572
REMARK  229  A    between atoms: _572  and  _573
REMARK  230  A    between atoms: _572  and  _575
REMARK  231  A    between atoms: _575  and  _576
REMARK  232  A    between atoms: _582  and  _584
REMARK  233  A    between atoms: _584  and  _585
REMARK  234  A    between atoms: _584  and  _587
REMARK  235  A    between atoms: _587  and  _588
REMARK  236  A    between atoms: _588  and  _589
REMARK  237  A    between atoms: _594  and  _596
REMARK  238  A    between atoms: _596  and  _597
REMARK  239  A    between atoms: _600  and  _602
REMARK  240  A    between atoms: _602  and  _603
REMARK  241  A    between atoms: _606  and  _608
REMARK  242  A    between atoms: _608  and  _609
REMARK  243  A    between atoms: _608  and  _611
REMARK  244  A    between atoms: _611  and  _612
REMARK  245  A    between atoms: _615  and  _617
REMARK  246  A    between atoms: _617  and  _618
REMARK  247  A    between atoms: _617  and  _620
REMARK  248  A    between atoms: _620  and  _621
REMARK  249  A    between atoms: _626  and  _627
REMARK  250  A    between atoms: _629  and  _631
REMARK  251  A    between atoms: _631  and  _632
REMARK  252  A    between atoms: _635  and  _637
REMARK  253  A    between atoms: _637  and  _638
REMARK  254  A    between atoms: _642  and  _643
REMARK  255  A    between atoms: _648  and  _650
REMARK  256  A    between atoms: _650  and  _651
REMARK  257  A    between atoms: _650  and  _653
REMARK  258  A    between atoms: _653  and  _654
REMARK  259  A    between atoms: _660  and  _662
REMARK  260  A    between atoms: _662  and  _663
REMARK  261  A    between atoms: _662  and  _665
REMARK  262  A    between atoms: _665  and  _666
REMARK  263  A    between atoms: _669  and  _671
REMARK  264  A    between atoms: _671  and  _672
REMARK  265  A    between atoms: _671  and  _674
REMARK  266  A    between atoms: _674  and  _675
REMARK  267  A    between atoms: _681  and  _683
REMARK  268  A    between atoms: _683  and  _684
REMARK  269  A    between atoms: _683  and  _686
REMARK  270  A    between atoms: _686  and  _687
REMARK  271  A    between atoms: _692  and  _693
REMARK  272  A    between atoms: _695  and  _697
REMARK  273  A    between atoms: _697  and  _698
REMARK  274  A    between atoms: _697  and  _700
REMARK  275  A    between atoms: _700  and  _701
REMARK  276  A    between atoms: _706  and  _707
REMARK  277  A    between atoms: _709  and  _711
REMARK  278  A    between atoms: _711  and  _712
REMARK  279  A    between atoms: _711  and  _714
REMARK  280  A    between atoms: _714  and  _715
REMARK  281  A    between atoms: _715  and  _716
REMARK  282  A    between atoms: _716  and  _717
REMARK  283  A    between atoms: _717  and  _718
REMARK  284  A    between atoms: _722  and  _724
REMARK  285  A    between atoms: _724  and  _725
REMARK  286  A    between atoms: _724  and  _727
REMARK                            x       y       z     vdW  Elec       q    Type
REMARK                         _______ _______ _______ _____ _____    ______ ____
ROOT
ATOM      1  O   HOH     1       2.804 -13.756  25.639  0.00  0.00    +0.000 OA
ENDROOT
TORSDOF 0
REMARK  Name = ../refined-set-2016/2euk/2euk_pocket.pdb
REMARK  286 active torsions:
REMARK  status: ('A' for Active; 'I' for Inactive)
REMARK    1  A    between atoms: _1  and  _5
REMARK    2  A    between atoms: _5  and  _6
REMARK    3  A    between atoms: _5  and  _8
REMARK    4  A    between atoms: _8  and  _9
REMARK    5  A    between atoms: _12  and  _14
REMARK    6  A    between atoms: _14  and  _15
REMARK    7  A    between atoms: _14  and  _17
REMARK    8  A    between atoms: _17  and  _18
REMARK    9  A    between atoms: _23  and  _25
REMARK   10  A    between atoms: _25  and  _26
REMARK   11  A    between atoms: _25  and  _28
REMARK   12  A    between atoms: _28  and  _29
REMARK   13  A    between atoms: _33  and  _34
REMARK   14  A    between atoms: _40  and  _41
REMARK   15  A    between atoms: _46  and  _48
REMARK   16  A    between atoms: _48  and  _49
REMARK   17  A    between atoms: _48  and  _51
REMARK   18  A    between atoms: _51  and  _52
REMARK   19  A    between atoms: _58  and  _60
REMARK   20  A    between atoms: _60  and  _61
REMARK   21  A    between atoms: _60  and  _63
REMARK   22  A    between atoms: _63  and  _64
REMARK   23  A    between atoms: _70  and  _72
REMARK   24  A    between atoms: _72  and  _73
REMARK   25  A    between atoms: _72  and  _75
REMARK   26  A    between atoms: _75  and  _76
REMARK   27  A    between atoms: _79  and  _81
REMARK   28  A    between atoms: _81  and  _82
REMARK   29  A    between atoms: _81  and  _84
REMARK   30  A    between atoms: _86  and  _88
REMARK   31  A    between atoms: _88  and  _89
REMARK   32  A    between atoms: _88  and  _91
REMARK   33  A    between atoms: _91  and  _92
REMARK   34  A    between atoms: _95  and  _97
REMARK   35  A    between atoms: _97  and  _98
REMARK   36  A    between atoms: _97  and  _100
REMARK   37  A    between atoms: _100  and  _101
REMARK   38  A    between atoms: _103  and  _105
REMARK   39  A    between atoms: _105  and  _106
REMARK   40  A    between atoms: _105  and  _108
REMARK   41  A    between atoms: _111  and  _113
REMARK   42  A    between atoms: _113  and  _114
REMARK   43  A    between atoms: _113  and  _116
REMARK   44  A    between atoms: _116  and  _117
REMARK   45  A    between atoms: _123  and  _125
REMARK   46  A    between atoms: _125  and  _126
REMARK   47  A    between atoms: _125  and  _128
REMARK   48  A    between atoms: _128  and  _129
REMARK   49  A    between atoms: _133  and  _134
REMARK   50  A    between atoms: _139  and  _141
REMARK   51  A    between atoms: _141  and  _142
REMARK   52  A    between atoms: _141  and  _144
REMARK   53  A    between atoms: _144  and  _145
REMARK   54  A    between atoms: _148  and  _150
REMARK   55  A    between atoms: _150  and  _151
REMARK   56  A    between atoms: _150  and  _153
REMARK   57  A    between atoms: _153  and  _154
REMARK   58  A    between atoms: _154  and  _155
REMARK   59  A    between atoms: _155  and  _156
REMARK   60  A    between atoms: _156  and  _157
REMARK   61  A    between atoms: _161  and  _163
REMARK   62  A    between atoms: _163  and  _164
REMARK   63  A    between atoms: _167  and  _169
REMARK   64  A    between atoms: _169  and  _170
REMARK   65  A    between atoms: _169  and  _172
REMARK   66  A    between atoms: _172  and  _173
REMARK   67  A    between atoms: _176  and  _178
REMARK   68  A    between atoms: _178  and  _179
REMARK   69  A    between atoms: _178  and  _181
REMARK   70  A    between atoms: _181  and  _182
REMARK   71  A    between atoms: _185  and  _187
REMARK   72  A    between atoms: _187  and  _188
REMARK   73  A    between atoms: _190  and  _192
REMARK   74  A    between atoms: _192  and  _193
REMARK   75  A    between atoms: _192  and  _195
REMARK   76  A    between atoms: _195  and  _196
REMARK   77  A    between atoms: _201  and  _203
REMARK   78  A    between atoms: _203  and  _204
REMARK   79  A    between atoms: _203  and  _206
REMARK   80  A    between atoms: _206  and  _207
REMARK   81  A    between atoms: _210  and  _212
REMARK   82  A    between atoms: _212  and  _213
REMARK   83  A    between atoms: _212  and  _215
REMARK   84  A    between atoms: _215  and  _216
REMARK   85  A    between atoms: _216  and  _217
REMARK   86  A    between atoms: _217  and  _218
REMARK   87  A    between atoms: _218  and  _219
REMARK   88  A    between atoms: _223  and  _225
REMARK   89  A    between atoms: _225  and  _226
REMARK   90  A    between atoms: _225  and  _228
REMARK   91  A    between atoms: _228  and  _229
REMARK   92  A    between atoms: _229  and  _230
REMARK   93  A    between atoms: _230  and  _231
REMARK   94  A    between atoms: _231  and  _232
REMARK   95  A    between atoms: _236  and  _238
REMARK   96  A    between atoms: _238  and  _239
REMARK   97  A    between atoms: _241  and  _243
REMARK   98  A    between atoms: _243  and  _244
REMARK   99  A    between atoms: _243  and  _246
REMARK  100  A    between atoms: _246  and  _247
REMARK  101  A    between atoms: _250  and  _252
REMARK  102  A    between atoms: _252  and  _253
REMARK  103  A    between atoms: _256  and  _258
REMARK  104  A    between atoms: _258  and  _259
REMARK  105  A    between atoms: _258  and  _261
REMARK  106  A    between atoms: _261  and  _262
REMARK  107  A    between atoms: _265  and  _267
REMARK  108  A    between atoms: _267  and  _268
REMARK  109  A    between atoms: _267  and  _270
REMARK  110  A    between atoms: _270  and  _271
REMARK  111  A    between atoms: _271  and  _272
REMARK  112  A    between atoms: _274  and  _276
REMARK  113  A    between atoms: _276  and  _277
REMARK  114  A    between atoms: _276  and  _279
REMARK  115  A    between atoms: _279  and  _280
REMARK  116  A    between atoms: _290  and  _292
REMARK  117  A    between atoms: _292  and  _293
REMARK  118  A    between atoms: _292  and  _295
REMARK  119  A    between atoms: _295  and  _296
REMARK  120  A    between atoms: _299  and  _301
REMARK  121  A    between atoms: _301  and  _302
REMARK  122  A    between atoms: _301  and  _304
REMARK  123  A    between atoms: _304  and  _305
REMARK  124  A    between atoms: _305  and  _306
REMARK  125  A    between atoms: _306  and  _307
REMARK  126  A    between atoms: _307  and  _308
REMARK  127  A    between atoms: _312  and  _314
REMARK  128  A    between atoms: _314  and  _315
REMARK  129  A    between atoms: _314  and  _317
REMARK  130  A    between atoms: _317  and  _318
REMARK  131  A    between atoms: _318  and  _319
REMARK  132  A    between atoms: _319  and  _320
REMARK  133  A    between atoms: _329  and  _331
REMARK  134  A    between atoms: _331  and  _332
REMARK  135  A    between atoms: _334  and  _336
REMARK  136  A    between atoms: _336  and  _337
REMARK  137  A    between atoms: _336  and  _339
REMARK  138  A    between atoms: _339  and  _340
REMARK  139  A    between atoms: _343  and  _345
REMARK  140  A    between atoms: _345  and  _346
REMARK  141  A    between atoms: _345  and  _348
REMARK  142  A    between atoms: _348  and  _349
REMARK  143  A    between atoms: _349  and  _350
REMARK  144  A    between atoms: _350  and  _351
REMARK  145  A    between atoms: _360  and  _362
REMARK  146  A    between atoms: _362  and  _363
REMARK  147  A    between atoms: _362  and  _365
REMARK  148  A    between atoms: _365  and  _366
REMARK  149  A    between atoms: _372  and  _374
REMARK  150  A    between atoms: _374  and  _375
REMARK  151  A    between atoms: _374  and  _377
REMARK  152  A    between atoms: _377  and  _378
REMARK  153  A    between atoms: _381  and  _383
REMARK  154  A    between atoms: _383  and  _384
REMARK  155  A    between atoms: _383  and  _386
REMARK  156  A    between atoms: _386  and  _387
REMARK  157  A    between atoms: _387  and  _388
REMARK  158  A    between atoms: _393  and  _395
REMARK  159  A    between atoms: _395  and  _396
REMARK  160  A    between atoms: _395  and  _398
REMARK  161  A    between atoms: _398  and  _399
REMARK  162  A    between atoms: _405  and  _407
REMARK  163  A    between atoms: _407  and  _408
REMARK  164  A    between atoms: _407  and  _410
REMARK  165  A    between atoms: _410  and  _411
REMARK  166  A    between atoms: _414  and  _416
REMARK  167  A    between atoms: _416  and  _417
REMARK  168  A    between atoms: _416  and  _419
REMARK  169  A    between atoms: _419  and  _420
REMARK  170  A    between atoms: _423  and  _425
REMARK  171  A    between atoms: _425  and  _426
REMARK  172  A    between atoms: _425  and  _428
REMARK  173  A    between atoms: _428  and  _429
REMARK  174  A    between atoms: _429  and  _430
REMARK  175  A    between atoms: _430  and  _431
REMARK  176  A    between atoms: _440  and  _442
REMARK  177  A    between atoms: _442  and  _443
REMARK  178  A    between atoms: _442  and  _445
REMARK  179  A    between atoms: _445  and  _446
REMARK  180  A    between atoms: _451  and  _453
REMARK  181  A    between atoms: _453  and  _454
REMARK  182  A    between atoms: _457  and  _459
REMARK  183  A    between atoms: _459  and  _460
REMARK  184  A    between atoms: _459  and  _462
REMARK  185  A    between atoms: _462  and  _463
REMARK  186  A    between atoms: _466  and  _468
REMARK  187  A    between atoms: _468  and  _469
REMARK  188  A    between atoms: _472  and  _474
REMARK  189  A    between atoms: _474  and  _475
REMARK  190  A    between atoms: _474  and  _477
REMARK  191  A    between atoms: _477  and  _478
REMARK  192  A    between atoms: _483  and  _484
REMARK  193  A    between atoms: _486  and  _488
REMARK  194  A    between atoms: _488  and  _489
REMARK  195  A    between atoms: _492  and  _494
REMARK  196  A    between atoms: _494  and  _495
REMARK  197  A    between atoms: _494  and  _497
REMARK  198  A    between atoms: _497  and  _498
REMARK  199  A    between atoms: _501  and  _503
REMARK  200  A    between atoms: _503  and  _504
REMARK  201  A    between atoms: _503  and  _506
REMARK  202  A    between atoms: _506  and  _507
REMARK  203  A    between atoms: _507  and  _508
REMARK  204  A    between atoms: _508  and  _509
REMARK  205  A    between atoms: _509  and  _510
REMARK  206  A    between atoms: _514  and  _516
REMARK  207  A    between atoms: _516  and  _517
REMARK  208  A    between atoms: _516  and  _519
REMARK  209  A    between atoms: _519  and  _520
REMARK  210  A    between atoms: _525  and  _526
REMARK  211  A    between atoms: _528  and  _530
REMARK  212  A    between atoms: _530  and  _531
REMARK  213  A    between atoms: _530  and  _533
REMARK  214  A    between atoms: _533  and  _534
REMARK  215  A    between atoms: _539  and  _541
REMARK  216  A    between atoms: _541  and  _542
REMARK  217  A    between atoms: _544  and  _546
REMARK  218  A    between atoms: _546  and  _547
REMARK  219  A    between atoms: _546  and  _549
REMARK  220  A    between atoms: _549  and  _550
REMARK  221  A    between atoms: _553  and  _555
REMARK  222  A    between atoms: _555  and  _556
REMARK  223  A    between atoms: _555  and  _558
REMARK  224  A    between atoms: _561  and  _563
REMARK  225  A    between atoms: _563  and  _564
REMARK  226  A    between atoms: _563  and  _566
REMARK  227  A    between atoms: _566  and  _567
REMARK  228  A    between atoms: _570  and  _572
REMARK  229  A    between atoms: _572  and  _573
REMARK  230  A    between atoms: _572  and  _575
REMARK  231  A    between atoms: _575  and  _576
REMARK  232  A    between atoms: _582  and  _584
REMARK  233  A    between atoms: _584  and  _585
REMARK  234  A    between atoms: _584  and  _587
REMARK  235  A    between atoms: _587  and  _588
REMARK  236  A    between atoms: _588  and  _589
REMARK  237  A    between atoms: _594  and  _596
REMARK  238  A    between atoms: _596  and  _597
REMARK  239  A    between atoms: _600  and  _602
REMARK  240  A    between atoms: _602  and  _603
REMARK  241  A    between atoms: _606  and  _608
REMARK  242  A    between atoms: _608  and  _609
REMARK  243  A    between atoms: _608  and  _611
REMARK  244  A    between atoms: _611  and  _612
REMARK  245  A    between atoms: _615  and  _617
REMARK  246  A    between atoms: _617  and  _618
REMARK  247  A    between atoms: _617  and  _620
REMARK  248  A    between atoms: _620  and  _621
REMARK  249  A    between atoms: _626  and  _627
REMARK  250  A    between atoms: _629  and  _631
REMARK  251  A    between atoms: _631  and  _632
REMARK  252  A    between atoms: _635  and  _637
REMARK  253  A    between atoms: _637  and  _638
REMARK  254  A    between atoms: _642  and  _643
REMARK  255  A    between atoms: _648  and  _650
REMARK  256  A    between atoms: _650  and  _651
REMARK  257  A    between atoms: _650  and  _653
REMARK  258  A    between atoms: _653  and  _654
REMARK  259  A    between atoms: _660  and  _662
REMARK  260  A    between atoms: _662  and  _663
REMARK  261  A    between atoms: _662  and  _665
REMARK  262  A    between atoms: _665  and  _666
REMARK  263  A    between atoms: _669  and  _671
REMARK  264  A    between atoms: _671  and  _672
REMARK  265  A    between atoms: _671  and  _674
REMARK  266  A    between atoms: _674  and  _675
REMARK  267  A    between atoms: _681  and  _683
REMARK  268  A    between atoms: _683  and  _684
REMARK  269  A    between atoms: _683  and  _686
REMARK  270  A    between atoms: _686  and  _687
REMARK  271  A    between atoms: _692  and  _693
REMARK  272  A    between atoms: _695  and  _697
REMARK  273  A    between atoms: _697  and  _698
REMARK  274  A    between atoms: _697  and  _700
REMARK  275  A    between atoms: _700  and  _701
REMARK  276  A    between atoms: _706  and  _707
REMARK  277  A    between atoms: _709  and  _711
REMARK  278  A    between atoms: _711  and  _712
REMARK  279  A    between atoms: _711  and  _714
REMARK  280  A    between atoms: _714  and  _715
REMARK  281  A    between atoms: _715  and  _716
REMARK  282  A    between atoms: _716  and  _717
REMARK  283  A    between atoms: _717  and  _718
REMARK  284  A    between atoms: _722  and  _724
REMARK  285  A    between atoms: _724  and  _725
REMARK  286  A    between atoms: _724  and  _727
REMARK                            x       y       z     vdW  Elec       q    Type
REMARK                         _______ _______ _______ _____ _____    ______ ____
ROOT
ATOM      1  O   HOH     1      29.375  -5.776  19.947  0.00  0.00    +0.000 OA
ENDROOT
TORSDOF 0
REMARK  Name = ../refined-set-2016/2euk/2euk_pocket.pdb
REMARK  286 active torsions:
REMARK  status: ('A' for Active; 'I' for Inactive)
REMARK    1  A    between atoms: _1  and  _5
REMARK    2  A    between atoms: _5  and  _6
REMARK    3  A    between atoms: _5  and  _8
REMARK    4  A    between atoms: _8  and  _9
REMARK    5  A    between atoms: _12  and  _14
REMARK    6  A    between atoms: _14  and  _15
REMARK    7  A    between atoms: _14  and  _17
REMARK    8  A    between atoms: _17  and  _18
REMARK    9  A    between atoms: _23  and  _25
REMARK   10  A    between atoms: _25  and  _26
REMARK   11  A    between atoms: _25  and  _28
REMARK   12  A    between atoms: _28  and  _29
REMARK   13  A    between atoms: _33  and  _34
REMARK   14  A    between atoms: _40  and  _41
REMARK   15  A    between atoms: _46  and  _48
REMARK   16  A    between atoms: _48  and  _49
REMARK   17  A    between atoms: _48  and  _51
REMARK   18  A    between atoms: _51  and  _52
REMARK   19  A    between atoms: _58  and  _60
REMARK   20  A    between atoms: _60  and  _61
REMARK   21  A    between atoms: _60  and  _63
REMARK   22  A    between atoms: _63  and  _64
REMARK   23  A    between atoms: _70  and  _72
REMARK   24  A    between atoms: _72  and  _73
REMARK   25  A    between atoms: _72  and  _75
REMARK   26  A    between atoms: _75  and  _76
REMARK   27  A    between atoms: _79  and  _81
REMARK   28  A    between atoms: _81  and  _82
REMARK   29  A    between atoms: _81  and  _84
REMARK   30  A    between atoms: _86  and  _88
REMARK   31  A    between atoms: _88  and  _89
REMARK   32  A    between atoms: _88  and  _91
REMARK   33  A    between atoms: _91  and  _92
REMARK   34  A    between atoms: _95  and  _97
REMARK   35  A    between atoms: _97  and  _98
REMARK   36  A    between atoms: _97  and  _100
REMARK   37  A    between atoms: _100  and  _101
REMARK   38  A    between atoms: _103  and  _105
REMARK   39  A    between atoms: _105  and  _106
REMARK   40  A    between atoms: _105  and  _108
REMARK   41  A    between atoms: _111  and  _113
REMARK   42  A    between atoms: _113  and  _114
REMARK   43  A    between atoms: _113  and  _116
REMARK   44  A    between atoms: _116  and  _117
REMARK   45  A    between atoms: _123  and  _125
REMARK   46  A    between atoms: _125  and  _126
REMARK   47  A    between atoms: _125  and  _128
REMARK   48  A    between atoms: _128  and  _129
REMARK   49  A    between atoms: _133  and  _134
REMARK   50  A    between atoms: _139  and  _141
REMARK   51  A    between atoms: _141  and  _142
REMARK   52  A    between atoms: _141  and  _144
REMARK   53  A    between atoms: _144  and  _145
REMARK   54  A    between atoms: _148  and  _150
REMARK   55  A    between atoms: _150  and  _151
REMARK   56  A    between atoms: _150  and  _153
REMARK   57  A    between atoms: _153  and  _154
REMARK   58  A    between atoms: _154  and  _155
REMARK   59  A    between atoms: _155  and  _156
REMARK   60  A    between atoms: _156  and  _157
REMARK   61  A    between atoms: _161  and  _163
REMARK   62  A    between atoms: _163  and  _164
REMARK   63  A    between atoms: _167  and  _169
REMARK   64  A    between atoms: _169  and  _170
REMARK   65  A    between atoms: _169  and  _172
REMARK   66  A    between atoms: _172  and  _173
REMARK   67  A    between atoms: _176  and  _178
REMARK   68  A    between atoms: _178  and  _179
REMARK   69  A    between atoms: _178  and  _181
REMARK   70  A    between atoms: _181  and  _182
REMARK   71  A    between atoms: _185  and  _187
REMARK   72  A    between atoms: _187  and  _188
REMARK   73  A    between atoms: _190  and  _192
REMARK   74  A    between atoms: _192  and  _193
REMARK   75  A    between atoms: _192  and  _195
REMARK   76  A    between atoms: _195  and  _196
REMARK   77  A    between atoms: _201  and  _203
REMARK   78  A    between atoms: _203  and  _204
REMARK   79  A    between atoms: _203  and  _206
REMARK   80  A    between atoms: _206  and  _207
REMARK   81  A    between atoms: _210  and  _212
REMARK   82  A    between atoms: _212  and  _213
REMARK   83  A    between atoms: _212  and  _215
REMARK   84  A    between atoms: _215  and  _216
REMARK   85  A    between atoms: _216  and  _217
REMARK   86  A    between atoms: _217  and  _218
REMARK   87  A    between atoms: _218  and  _219
REMARK   88  A    between atoms: _223  and  _225
REMARK   89  A    between atoms: _225  and  _226
REMARK   90  A    between atoms: _225  and  _228
REMARK   91  A    between atoms: _228  and  _229
REMARK   92  A    between atoms: _229  and  _230
REMARK   93  A    between atoms: _230  and  _231
REMARK   94  A    between atoms: _231  and  _232
REMARK   95  A    between atoms: _236  and  _238
REMARK   96  A    between atoms: _238  and  _239
REMARK   97  A    between atoms: _241  and  _243
REMARK   98  A    between atoms: _243  and  _244
REMARK   99  A    between atoms: _243  and  _246
REMARK  100  A    between atoms: _246  and  _247
REMARK  101  A    between atoms: _250  and  _252
REMARK  102  A    between atoms: _252  and  _253
REMARK  103  A    between atoms: _256  and  _258
REMARK  104  A    between atoms: _258  and  _259
REMARK  105  A    between atoms: _258  and  _261
REMARK  106  A    between atoms: _261  and  _262
REMARK  107  A    between atoms: _265  and  _267
REMARK  108  A    between atoms: _267  and  _268
REMARK  109  A    between atoms: _267  and  _270
REMARK  110  A    between atoms: _270  and  _271
REMARK  111  A    between atoms: _271  and  _272
REMARK  112  A    between atoms: _274  and  _276
REMARK  113  A    between atoms: _276  and  _277
REMARK  114  A    between atoms: _276  and  _279
REMARK  115  A    between atoms: _279  and  _280
REMARK  116  A    between atoms: _290  and  _292
REMARK  117  A    between atoms: _292  and  _293
REMARK  118  A    between atoms: _292  and  _295
REMARK  119  A    between atoms: _295  and  _296
REMARK  120  A    between atoms: _299  and  _301
REMARK  121  A    between atoms: _301  and  _302
REMARK  122  A    between atoms: _301  and  _304
REMARK  123  A    between atoms: _304  and  _305
REMARK  124  A    between atoms: _305  and  _306
REMARK  125  A    between atoms: _306  and  _307
REMARK  126  A    between atoms: _307  and  _308
REMARK  127  A    between atoms: _312  and  _314
REMARK  128  A    between atoms: _314  and  _315
REMARK  129  A    between atoms: _314  and  _317
REMARK  130  A    between atoms: _317  and  _318
REMARK  131  A    between atoms: _318  and  _319
REMARK  132  A    between atoms: _319  and  _320
REMARK  133  A    between atoms: _329  and  _331
REMARK  134  A    between atoms: _331  and  _332
REMARK  135  A    between atoms: _334  and  _336
REMARK  136  A    between atoms: _336  and  _337
REMARK  137  A    between atoms: _336  and  _339
REMARK  138  A    between atoms: _339  and  _340
REMARK  139  A    between atoms: _343  and  _345
REMARK  140  A    between atoms: _345  and  _346
REMARK  141  A    between atoms: _345  and  _348
REMARK  142  A    between atoms: _348  and  _349
REMARK  143  A    between atoms: _349  and  _350
REMARK  144  A    between atoms: _350  and  _351
REMARK  145  A    between atoms: _360  and  _362
REMARK  146  A    between atoms: _362  and  _363
REMARK  147  A    between atoms: _362  and  _365
REMARK  148  A    between atoms: _365  and  _366
REMARK  149  A    between atoms: _372  and  _374
REMARK  150  A    between atoms: _374  and  _375
REMARK  151  A    between atoms: _374  and  _377
REMARK  152  A    between atoms: _377  and  _378
REMARK  153  A    between atoms: _381  and  _383
REMARK  154  A    between atoms: _383  and  _384
REMARK  155  A    between atoms: _383  and  _386
REMARK  156  A    between atoms: _386  and  _387
REMARK  157  A    between atoms: _387  and  _388
REMARK  158  A    between atoms: _393  and  _395
REMARK  159  A    between atoms: _395  and  _396
REMARK  160  A    between atoms: _395  and  _398
REMARK  161  A    between atoms: _398  and  _399
REMARK  162  A    between atoms: _405  and  _407
REMARK  163  A    between atoms: _407  and  _408
REMARK  164  A    between atoms: _407  and  _410
REMARK  165  A    between atoms: _410  and  _411
REMARK  166  A    between atoms: _414  and  _416
REMARK  167  A    between atoms: _416  and  _417
REMARK  168  A    between atoms: _416  and  _419
REMARK  169  A    between atoms: _419  and  _420
REMARK  170  A    between atoms: _423  and  _425
REMARK  171  A    between atoms: _425  and  _426
REMARK  172  A    between atoms: _425  and  _428
REMARK  173  A    between atoms: _428  and  _429
REMARK  174  A    between atoms: _429  and  _430
REMARK  175  A    between atoms: _430  and  _431
REMARK  176  A    between atoms: _440  and  _442
REMARK  177  A    between atoms: _442  and  _443
REMARK  178  A    between atoms: _442  and  _445
REMARK  179  A    between atoms: _445  and  _446
REMARK  180  A    between atoms: _451  and  _453
REMARK  181  A    between atoms: _453  and  _454
REMARK  182  A    between atoms: _457  and  _459
REMARK  183  A    between atoms: _459  and  _460
REMARK  184  A    between atoms: _459  and  _462
REMARK  185  A    between atoms: _462  and  _463
REMARK  186  A    between atoms: _466  and  _468
REMARK  187  A    between atoms: _468  and  _469
REMARK  188  A    between atoms: _472  and  _474
REMARK  189  A    between atoms: _474  and  _475
REMARK  190  A    between atoms: _474  and  _477
REMARK  191  A    between atoms: _477  and  _478
REMARK  192  A    between atoms: _483  and  _484
REMARK  193  A    between atoms: _486  and  _488
REMARK  194  A    between atoms: _488  and  _489
REMARK  195  A    between atoms: _492  and  _494
REMARK  196  A    between atoms: _494  and  _495
REMARK  197  A    between atoms: _494  and  _497
REMARK  198  A    between atoms: _497  and  _498
REMARK  199  A    between atoms: _501  and  _503
REMARK  200  A    between atoms: _503  and  _504
REMARK  201  A    between atoms: _503  and  _506
REMARK  202  A    between atoms: _506  and  _507
REMARK  203  A    between atoms: _507  and  _508
REMARK  204  A    between atoms: _508  and  _509
REMARK  205  A    between atoms: _509  and  _510
REMARK  206  A    between atoms: _514  and  _516
REMARK  207  A    between atoms: _516  and  _517
REMARK  208  A    between atoms: _516  and  _519
REMARK  209  A    between atoms: _519  and  _520
REMARK  210  A    between atoms: _525  and  _526
REMARK  211  A    between atoms: _528  and  _530
REMARK  212  A    between atoms: _530  and  _531
REMARK  213  A    between atoms: _530  and  _533
REMARK  214  A    between atoms: _533  and  _534
REMARK  215  A    between atoms: _539  and  _541
REMARK  216  A    between atoms: _541  and  _542
REMARK  217  A    between atoms: _544  and  _546
REMARK  218  A    between atoms: _546  and  _547
REMARK  219  A    between atoms: _546  and  _549
REMARK  220  A    between atoms: _549  and  _550
REMARK  221  A    between atoms: _553  and  _555
REMARK  222  A    between atoms: _555  and  _556
REMARK  223  A    between atoms: _555  and  _558
REMARK  224  A    between atoms: _561  and  _563
REMARK  225  A    between atoms: _563  and  _564
REMARK  226  A    between atoms: _563  and  _566
REMARK  227  A    between atoms: _566  and  _567
REMARK  228  A    between atoms: _570  and  _572
REMARK  229  A    between atoms: _572  and  _573
REMARK  230  A    between atoms: _572  and  _575
REMARK  231  A    between atoms: _575  and  _576
REMARK  232  A    between atoms: _582  and  _584
REMARK  233  A    between atoms: _584  and  _585
REMARK  234  A    between atoms: _584  and  _587
REMARK  235  A    between atoms: _587  and  _588
REMARK  236  A    between atoms: _588  and  _589
REMARK  237  A    between atoms: _594  and  _596
REMARK  238  A    between atoms: _596  and  _597
REMARK  239  A    between atoms: _600  and  _602
REMARK  240  A    between atoms: _602  and  _603
REMARK  241  A    between atoms: _606  and  _608
REMARK  242  A    between atoms: _608  and  _609
REMARK  243  A    between atoms: _608  and  _611
REMARK  244  A    between atoms: _611  and  _612
REMARK  245  A    between atoms: _615  and  _617
REMARK  246  A    between atoms: _617  and  _618
REMARK  247  A    between atoms: _617  and  _620
REMARK  248  A    between atoms: _620  and  _621
REMARK  249  A    between atoms: _626  and  _627
REMARK  250  A    between atoms: _629  and  _631
REMARK  251  A    between atoms: _631  and  _632
REMARK  252  A    between atoms: _635  and  _637
REMARK  253  A    between atoms: _637  and  _638
REMARK  254  A    between atoms: _642  and  _643
REMARK  255  A    between atoms: _648  and  _650
REMARK  256  A    between atoms: _650  and  _651
REMARK  257  A    between atoms: _650  and  _653
REMARK  258  A    between atoms: _653  and  _654
REMARK  259  A    between atoms: _660  and  _662
REMARK  260  A    between atoms: _662  and  _663
REMARK  261  A    between atoms: _662  and  _665
REMARK  262  A    between atoms: _665  and  _666
REMARK  263  A    between atoms: _669  and  _671
REMARK  264  A    between atoms: _671  and  _672
REMARK  265  A    between atoms: _671  and  _674
REMARK  266  A    between atoms: _674  and  _675
REMARK  267  A    between atoms: _681  and  _683
REMARK  268  A    between atoms: _683  and  _684
REMARK  269  A    between atoms: _683  and  _686
REMARK  270  A    between atoms: _686  and  _687
REMARK  271  A    between atoms: _692  and  _693
REMARK  272  A    between atoms: _695  and  _697
REMARK  273  A    between atoms: _697  and  _698
REMARK  274  A    between atoms: _697  and  _700
REMARK  275  A    between atoms: _700  and  _701
REMARK  276  A    between atoms: _706  and  _707
REMARK  277  A    between atoms: _709  and  _711
REMARK  278  A    between atoms: _711  and  _712
REMARK  279  A    between atoms: _711  and  _714
REMARK  280  A    between atoms: _714  and  _715
REMARK  281  A    between atoms: _715  and  _716
REMARK  282  A    between atoms: _716  and  _717
REMARK  283  A    between atoms: _717  and  _718
REMARK  284  A    between atoms: _722  and  _724
REMARK  285  A    between atoms: _724  and  _725
REMARK  286  A    between atoms: _724  and  _727
REMARK                            x       y       z     vdW  Elec       q    Type
REMARK                         _______ _______ _______ _____ _____    ______ ____
ROOT
ATOM      1  O   HOH     1      24.347   1.868  21.727  0.00  0.00    +0.000 OA
ENDROOT
TORSDOF 0
REMARK  Name = ../refined-set-2016/2euk/2euk_pocket.pdb
REMARK  286 active torsions:
REMARK  status: ('A' for Active; 'I' for Inactive)
REMARK    1  A    between atoms: _1  and  _5
REMARK    2  A    between atoms: _5  and  _6
REMARK    3  A    between atoms: _5  and  _8
REMARK    4  A    between atoms: _8  and  _9
REMARK    5  A    between atoms: _12  and  _14
REMARK    6  A    between atoms: _14  and  _15
REMARK    7  A    between atoms: _14  and  _17
REMARK    8  A    between atoms: _17  and  _18
REMARK    9  A    between atoms: _23  and  _25
REMARK   10  A    between atoms: _25  and  _26
REMARK   11  A    between atoms: _25  and  _28
REMARK   12  A    between atoms: _28  and  _29
REMARK   13  A    between atoms: _33  and  _34
REMARK   14  A    between atoms: _40  and  _41
REMARK   15  A    between atoms: _46  and  _48
REMARK   16  A    between atoms: _48  and  _49
REMARK   17  A    between atoms: _48  and  _51
REMARK   18  A    between atoms: _51  and  _52
REMARK   19  A    between atoms: _58  and  _60
REMARK   20  A    between atoms: _60  and  _61
REMARK   21  A    between atoms: _60  and  _63
REMARK   22  A    between atoms: _63  and  _64
REMARK   23  A    between atoms: _70  and  _72
REMARK   24  A    between atoms: _72  and  _73
REMARK   25  A    between atoms: _72  and  _75
REMARK   26  A    between atoms: _75  and  _76
REMARK   27  A    between atoms: _79  and  _81
REMARK   28  A    between atoms: _81  and  _82
REMARK   29  A    between atoms: _81  and  _84
REMARK   30  A    between atoms: _86  and  _88
REMARK   31  A    between atoms: _88  and  _89
REMARK   32  A    between atoms: _88  and  _91
REMARK   33  A    between atoms: _91  and  _92
REMARK   34  A    between atoms: _95  and  _97
REMARK   35  A    between atoms: _97  and  _98
REMARK   36  A    between atoms: _97  and  _100
REMARK   37  A    between atoms: _100  and  _101
REMARK   38  A    between atoms: _103  and  _105
REMARK   39  A    between atoms: _105  and  _106
REMARK   40  A    between atoms: _105  and  _108
REMARK   41  A    between atoms: _111  and  _113
REMARK   42  A    between atoms: _113  and  _114
REMARK   43  A    between atoms: _113  and  _116
REMARK   44  A    between atoms: _116  and  _117
REMARK   45  A    between atoms: _123  and  _125
REMARK   46  A    between atoms: _125  and  _126
REMARK   47  A    between atoms: _125  and  _128
REMARK   48  A    between atoms: _128  and  _129
REMARK   49  A    between atoms: _133  and  _134
REMARK   50  A    between atoms: _139  and  _141
REMARK   51  A    between atoms: _141  and  _142
REMARK   52  A    between atoms: _141  and  _144
REMARK   53  A    between atoms: _144  and  _145
REMARK   54  A    between atoms: _148  and  _150
REMARK   55  A    between atoms: _150  and  _151
REMARK   56  A    between atoms: _150  and  _153
REMARK   57  A    between atoms: _153  and  _154
REMARK   58  A    between atoms: _154  and  _155
REMARK   59  A    between atoms: _155  and  _156
REMARK   60  A    between atoms: _156  and  _157
REMARK   61  A    between atoms: _161  and  _163
REMARK   62  A    between atoms: _163  and  _164
REMARK   63  A    between atoms: _167  and  _169
REMARK   64  A    between atoms: _169  and  _170
REMARK   65  A    between atoms: _169  and  _172
REMARK   66  A    between atoms: _172  and  _173
REMARK   67  A    between atoms: _176  and  _178
REMARK   68  A    between atoms: _178  and  _179
REMARK   69  A    between atoms: _178  and  _181
REMARK   70  A    between atoms: _181  and  _182
REMARK   71  A    between atoms: _185  and  _187
REMARK   72  A    between atoms: _187  and  _188
REMARK   73  A    between atoms: _190  and  _192
REMARK   74  A    between atoms: _192  and  _193
REMARK   75  A    between atoms: _192  and  _195
REMARK   76  A    between atoms: _195  and  _196
REMARK   77  A    between atoms: _201  and  _203
REMARK   78  A    between atoms: _203  and  _204
REMARK   79  A    between atoms: _203  and  _206
REMARK   80  A    between atoms: _206  and  _207
REMARK   81  A    between atoms: _210  and  _212
REMARK   82  A    between atoms: _212  and  _213
REMARK   83  A    between atoms: _212  and  _215
REMARK   84  A    between atoms: _215  and  _216
REMARK   85  A    between atoms: _216  and  _217
REMARK   86  A    between atoms: _217  and  _218
REMARK   87  A    between atoms: _218  and  _219
REMARK   88  A    between atoms: _223  and  _225
REMARK   89  A    between atoms: _225  and  _226
REMARK   90  A    between atoms: _225  and  _228
REMARK   91  A    between atoms: _228  and  _229
REMARK   92  A    between atoms: _229  and  _230
REMARK   93  A    between atoms: _230  and  _231
REMARK   94  A    between atoms: _231  and  _232
REMARK   95  A    between atoms: _236  and  _238
REMARK   96  A    between atoms: _238  and  _239
REMARK   97  A    between atoms: _241  and  _243
REMARK   98  A    between atoms: _243  and  _244
REMARK   99  A    between atoms: _243  and  _246
REMARK  100  A    between atoms: _246  and  _247
REMARK  101  A    between atoms: _250  and  _252
REMARK  102  A    between atoms: _252  and  _253
REMARK  103  A    between atoms: _256  and  _258
REMARK  104  A    between atoms: _258  and  _259
REMARK  105  A    between atoms: _258  and  _261
REMARK  106  A    between atoms: _261  and  _262
REMARK  107  A    between atoms: _265  and  _267
REMARK  108  A    between atoms: _267  and  _268
REMARK  109  A    between atoms: _267  and  _270
REMARK  110  A    between atoms: _270  and  _271
REMARK  111  A    between atoms: _271  and  _272
REMARK  112  A    between atoms: _274  and  _276
REMARK  113  A    between atoms: _276  and  _277
REMARK  114  A    between atoms: _276  and  _279
REMARK  115  A    between atoms: _279  and  _280
REMARK  116  A    between atoms: _290  and  _292
REMARK  117  A    between atoms: _292  and  _293
REMARK  118  A    between atoms: _292  and  _295
REMARK  119  A    between atoms: _295  and  _296
REMARK  120  A    between atoms: _299  and  _301
REMARK  121  A    between atoms: _301  and  _302
REMARK  122  A    between atoms: _301  and  _304
REMARK  123  A    between atoms: _304  and  _305
REMARK  124  A    between atoms: _305  and  _306
REMARK  125  A    between atoms: _306  and  _307
REMARK  126  A    between atoms: _307  and  _308
REMARK  127  A    between atoms: _312  and  _314
REMARK  128  A    between atoms: _314  and  _315
REMARK  129  A    between atoms: _314  and  _317
REMARK  130  A    between atoms: _317  and  _318
REMARK  131  A    between atoms: _318  and  _319
REMARK  132  A    between atoms: _319  and  _320
REMARK  133  A    between atoms: _329  and  _331
REMARK  134  A    between atoms: _331  and  _332
REMARK  135  A    between atoms: _334  and  _336
REMARK  136  A    between atoms: _336  and  _337
REMARK  137  A    between atoms: _336  and  _339
REMARK  138  A    between atoms: _339  and  _340
REMARK  139  A    between atoms: _343  and  _345
REMARK  140  A    between atoms: _345  and  _346
REMARK  141  A    between atoms: _345  and  _348
REMARK  142  A    between atoms: _348  and  _349
REMARK  143  A    between atoms: _349  and  _350
REMARK  144  A    between atoms: _350  and  _351
REMARK  145  A    between atoms: _360  and  _362
REMARK  146  A    between atoms: _362  and  _363
REMARK  147  A    between atoms: _362  and  _365
REMARK  148  A    between atoms: _365  and  _366
REMARK  149  A    between atoms: _372  and  _374
REMARK  150  A    between atoms: _374  and  _375
REMARK  151  A    between atoms: _374  and  _377
REMARK  152  A    between atoms: _377  and  _378
REMARK  153  A    between atoms: _381  and  _383
REMARK  154  A    between atoms: _383  and  _384
REMARK  155  A    between atoms: _383  and  _386
REMARK  156  A    between atoms: _386  and  _387
REMARK  157  A    between atoms: _387  and  _388
REMARK  158  A    between atoms: _393  and  _395
REMARK  159  A    between atoms: _395  and  _396
REMARK  160  A    between atoms: _395  and  _398
REMARK  161  A    between atoms: _398  and  _399
REMARK  162  A    between atoms: _405  and  _407
REMARK  163  A    between atoms: _407  and  _408
REMARK  164  A    between atoms: _407  and  _410
REMARK  165  A    between atoms: _410  and  _411
REMARK  166  A    between atoms: _414  and  _416
REMARK  167  A    between atoms: _416  and  _417
REMARK  168  A    between atoms: _416  and  _419
REMARK  169  A    between atoms: _419  and  _420
REMARK  170  A    between atoms: _423  and  _425
REMARK  171  A    between atoms: _425  and  _426
REMARK  172  A    between atoms: _425  and  _428
REMARK  173  A    between atoms: _428  and  _429
REMARK  174  A    between atoms: _429  and  _430
REMARK  175  A    between atoms: _430  and  _431
REMARK  176  A    between atoms: _440  and  _442
REMARK  177  A    between atoms: _442  and  _443
REMARK  178  A    between atoms: _442  and  _445
REMARK  179  A    between atoms: _445  and  _446
REMARK  180  A    between atoms: _451  and  _453
REMARK  181  A    between atoms: _453  and  _454
REMARK  182  A    between atoms: _457  and  _459
REMARK  183  A    between atoms: _459  and  _460
REMARK  184  A    between atoms: _459  and  _462
REMARK  185  A    between atoms: _462  and  _463
REMARK  186  A    between atoms: _466  and  _468
REMARK  187  A    between atoms: _468  and  _469
REMARK  188  A    between atoms: _472  and  _474
REMARK  189  A    between atoms: _474  and  _475
REMARK  190  A    between atoms: _474  and  _477
REMARK  191  A    between atoms: _477  and  _478
REMARK  192  A    between atoms: _483  and  _484
REMARK  193  A    between atoms: _486  and  _488
REMARK  194  A    between atoms: _488  and  _489
REMARK  195  A    between atoms: _492  and  _494
REMARK  196  A    between atoms: _494  and  _495
REMARK  197  A    between atoms: _494  and  _497
REMARK  198  A    between atoms: _497  and  _498
REMARK  199  A    between atoms: _501  and  _503
REMARK  200  A    between atoms: _503  and  _504
REMARK  201  A    between atoms: _503  and  _506
REMARK  202  A    between atoms: _506  and  _507
REMARK  203  A    between atoms: _507  and  _508
REMARK  204  A    between atoms: _508  and  _509
REMARK  205  A    between atoms: _509  and  _510
REMARK  206  A    between atoms: _514  and  _516
REMARK  207  A    between atoms: _516  and  _517
REMARK  208  A    between atoms: _516  and  _519
REMARK  209  A    between atoms: _519  and  _520
REMARK  210  A    between atoms: _525  and  _526
REMARK  211  A    between atoms: _528  and  _530
REMARK  212  A    between atoms: _530  and  _531
REMARK  213  A    between atoms: _530  and  _533
REMARK  214  A    between atoms: _533  and  _534
REMARK  215  A    between atoms: _539  and  _541
REMARK  216  A    between atoms: _541  and  _542
REMARK  217  A    between atoms: _544  and  _546
REMARK  218  A    between atoms: _546  and  _547
REMARK  219  A    between atoms: _546  and  _549
REMARK  220  A    between atoms: _549  and  _550
REMARK  221  A    between atoms: _553  and  _555
REMARK  222  A    between atoms: _555  and  _556
REMARK  223  A    between atoms: _555  and  _558
REMARK  224  A    between atoms: _561  and  _563
REMARK  225  A    between atoms: _563  and  _564
REMARK  226  A    between atoms: _563  and  _566
REMARK  227  A    between atoms: _566  and  _567
REMARK  228  A    between atoms: _570  and  _572
REMARK  229  A    between atoms: _572  and  _573
REMARK  230  A    between atoms: _572  and  _575
REMARK  231  A    between atoms: _575  and  _576
REMARK  232  A    between atoms: _582  and  _584
REMARK  233  A    between atoms: _584  and  _585
REMARK  234  A    between atoms: _584  and  _587
REMARK  235  A    between atoms: _587  and  _588
REMARK  236  A    between atoms: _588  and  _589
REMARK  237  A    between atoms: _594  and  _596
REMARK  238  A    between atoms: _596  and  _597
REMARK  239  A    between atoms: _600  and  _602
REMARK  240  A    between atoms: _602  and  _603
REMARK  241  A    between atoms: _606  and  _608
REMARK  242  A    between atoms: _608  and  _609
REMARK  243  A    between atoms: _608  and  _611
REMARK  244  A    between atoms: _611  and  _612
REMARK  245  A    between atoms: _615  and  _617
REMARK  246  A    between atoms: _617  and  _618
REMARK  247  A    between atoms: _617  and  _620
REMARK  248  A    between atoms: _620  and  _621
REMARK  249  A    between atoms: _626  and  _627
REMARK  250  A    between atoms: _629  and  _631
REMARK  251  A    between atoms: _631  and  _632
REMARK  252  A    between atoms: _635  and  _637
REMARK  253  A    between atoms: _637  and  _638
REMARK  254  A    between atoms: _642  and  _643
REMARK  255  A    between atoms: _648  and  _650
REMARK  256  A    between atoms: _650  and  _651
REMARK  257  A    between atoms: _650  and  _653
REMARK  258  A    between atoms: _653  and  _654
REMARK  259  A    between atoms: _660  and  _662
REMARK  260  A    between atoms: _662  and  _663
REMARK  261  A    between atoms: _662  and  _665
REMARK  262  A    between atoms: _665  and  _666
REMARK  263  A    between atoms: _669  and  _671
REMARK  264  A    between atoms: _671  and  _672
REMARK  265  A    between atoms: _671  and  _674
REMARK  266  A    between atoms: _674  and  _675
REMARK  267  A    between atoms: _681  and  _683
REMARK  268  A    between atoms: _683  and  _684
REMARK  269  A    between atoms: _683  and  _686
REMARK  270  A    between atoms: _686  and  _687
REMARK  271  A    between atoms: _692  and  _693
REMARK  272  A    between atoms: _695  and  _697
REMARK  273  A    between atoms: _697  and  _698
REMARK  274  A    between atoms: _697  and  _700
REMARK  275  A    between atoms: _700  and  _701
REMARK  276  A    between atoms: _706  and  _707
REMARK  277  A    between atoms: _709  and  _711
REMARK  278  A    between atoms: _711  and  _712
REMARK  279  A    between atoms: _711  and  _714
REMARK  280  A    between atoms: _714  and  _715
REMARK  281  A    between atoms: _715  and  _716
REMARK  282  A    between atoms: _716  and  _717
REMARK  283  A    between atoms: _717  and  _718
REMARK  284  A    between atoms: _722  and  _724
REMARK  285  A    between atoms: _724  and  _725
REMARK  286  A    between atoms: _724  and  _727
REMARK                            x       y       z     vdW  Elec       q    Type
REMARK                         _______ _______ _______ _____ _____    ______ ____
ROOT
ATOM      1  O   HOH     1      21.391   7.335  23.779  0.00  0.00    +0.000 OA
ENDROOT
TORSDOF 0
REMARK  Name = ../refined-set-2016/2euk/2euk_pocket.pdb
REMARK  286 active torsions:
REMARK  status: ('A' for Active; 'I' for Inactive)
REMARK    1  A    between atoms: _1  and  _5
REMARK    2  A    between atoms: _5  and  _6
REMARK    3  A    between atoms: _5  and  _8
REMARK    4  A    between atoms: _8  and  _9
REMARK    5  A    between atoms: _12  and  _14
REMARK    6  A    between atoms: _14  and  _15
REMARK    7  A    between atoms: _14  and  _17
REMARK    8  A    between atoms: _17  and  _18
REMARK    9  A    between atoms: _23  and  _25
REMARK   10  A    between atoms: _25  and  _26
REMARK   11  A    between atoms: _25  and  _28
REMARK   12  A    between atoms: _28  and  _29
REMARK   13  A    between atoms: _33  and  _34
REMARK   14  A    between atoms: _40  and  _41
REMARK   15  A    between atoms: _46  and  _48
REMARK   16  A    between atoms: _48  and  _49
REMARK   17  A    between atoms: _48  and  _51
REMARK   18  A    between atoms: _51  and  _52
REMARK   19  A    between atoms: _58  and  _60
REMARK   20  A    between atoms: _60  and  _61
REMARK   21  A    between atoms: _60  and  _63
REMARK   22  A    between atoms: _63  and  _64
REMARK   23  A    between atoms: _70  and  _72
REMARK   24  A    between atoms: _72  and  _73
REMARK   25  A    between atoms: _72  and  _75
REMARK   26  A    between atoms: _75  and  _76
REMARK   27  A    between atoms: _79  and  _81
REMARK   28  A    between atoms: _81  and  _82
REMARK   29  A    between atoms: _81  and  _84
REMARK   30  A    between atoms: _86  and  _88
REMARK   31  A    between atoms: _88  and  _89
REMARK   32  A    between atoms: _88  and  _91
REMARK   33  A    between atoms: _91  and  _92
REMARK   34  A    between atoms: _95  and  _97
REMARK   35  A    between atoms: _97  and  _98
REMARK   36  A    between atoms: _97  and  _100
REMARK   37  A    between atoms: _100  and  _101
REMARK   38  A    between atoms: _103  and  _105
REMARK   39  A    between atoms: _105  and  _106
REMARK   40  A    between atoms: _105  and  _108
REMARK   41  A    between atoms: _111  and  _113
REMARK   42  A    between atoms: _113  and  _114
REMARK   43  A    between atoms: _113  and  _116
REMARK   44  A    between atoms: _116  and  _117
REMARK   45  A    between atoms: _123  and  _125
REMARK   46  A    between atoms: _125  and  _126
REMARK   47  A    between atoms: _125  and  _128
REMARK   48  A    between atoms: _128  and  _129
REMARK   49  A    between atoms: _133  and  _134
REMARK   50  A    between atoms: _139  and  _141
REMARK   51  A    between atoms: _141  and  _142
REMARK   52  A    between atoms: _141  and  _144
REMARK   53  A    between atoms: _144  and  _145
REMARK   54  A    between atoms: _148  and  _150
REMARK   55  A    between atoms: _150  and  _151
REMARK   56  A    between atoms: _150  and  _153
REMARK   57  A    between atoms: _153  and  _154
REMARK   58  A    between atoms: _154  and  _155
REMARK   59  A    between atoms: _155  and  _156
REMARK   60  A    between atoms: _156  and  _157
REMARK   61  A    between atoms: _161  and  _163
REMARK   62  A    between atoms: _163  and  _164
REMARK   63  A    between atoms: _167  and  _169
REMARK   64  A    between atoms: _169  and  _170
REMARK   65  A    between atoms: _169  and  _172
REMARK   66  A    between atoms: _172  and  _173
REMARK   67  A    between atoms: _176  and  _178
REMARK   68  A    between atoms: _178  and  _179
REMARK   69  A    between atoms: _178  and  _181
REMARK   70  A    between atoms: _181  and  _182
REMARK   71  A    between atoms: _185  and  _187
REMARK   72  A    between atoms: _187  and  _188
REMARK   73  A    between atoms: _190  and  _192
REMARK   74  A    between atoms: _192  and  _193
REMARK   75  A    between atoms: _192  and  _195
REMARK   76  A    between atoms: _195  and  _196
REMARK   77  A    between atoms: _201  and  _203
REMARK   78  A    between atoms: _203  and  _204
REMARK   79  A    between atoms: _203  and  _206
REMARK   80  A    between atoms: _206  and  _207
REMARK   81  A    between atoms: _210  and  _212
REMARK   82  A    between atoms: _212  and  _213
REMARK   83  A    between atoms: _212  and  _215
REMARK   84  A    between atoms: _215  and  _216
REMARK   85  A    between atoms: _216  and  _217
REMARK   86  A    between atoms: _217  and  _218
REMARK   87  A    between atoms: _218  and  _219
REMARK   88  A    between atoms: _223  and  _225
REMARK   89  A    between atoms: _225  and  _226
REMARK   90  A    between atoms: _225  and  _228
REMARK   91  A    between atoms: _228  and  _229
REMARK   92  A    between atoms: _229  and  _230
REMARK   93  A    between atoms: _230  and  _231
REMARK   94  A    between atoms: _231  and  _232
REMARK   95  A    between atoms: _236  and  _238
REMARK   96  A    between atoms: _238  and  _239
REMARK   97  A    between atoms: _241  and  _243
REMARK   98  A    between atoms: _243  and  _244
REMARK   99  A    between atoms: _243  and  _246
REMARK  100  A    between atoms: _246  and  _247
REMARK  101  A    between atoms: _250  and  _252
REMARK  102  A    between atoms: _252  and  _253
REMARK  103  A    between atoms: _256  and  _258
REMARK  104  A    between atoms: _258  and  _259
REMARK  105  A    between atoms: _258  and  _261
REMARK  106  A    between atoms: _261  and  _262
REMARK  107  A    between atoms: _265  and  _267
REMARK  108  A    between atoms: _267  and  _268
REMARK  109  A    between atoms: _267  and  _270
REMARK  110  A    between atoms: _270  and  _271
REMARK  111  A    between atoms: _271  and  _272
REMARK  112  A    between atoms: _274  and  _276
REMARK  113  A    between atoms: _276  and  _277
REMARK  114  A    between atoms: _276  and  _279
REMARK  115  A    between atoms: _279  and  _280
REMARK  116  A    between atoms: _290  and  _292
REMARK  117  A    between atoms: _292  and  _293
REMARK  118  A    between atoms: _292  and  _295
REMARK  119  A    between atoms: _295  and  _296
REMARK  120  A    between atoms: _299  and  _301
REMARK  121  A    between atoms: _301  and  _302
REMARK  122  A    between atoms: _301  and  _304
REMARK  123  A    between atoms: _304  and  _305
REMARK  124  A    between atoms: _305  and  _306
REMARK  125  A    between atoms: _306  and  _307
REMARK  126  A    between atoms: _307  and  _308
REMARK  127  A    between atoms: _312  and  _314
REMARK  128  A    between atoms: _314  and  _315
REMARK  129  A    between atoms: _314  and  _317
REMARK  130  A    between atoms: _317  and  _318
REMARK  131  A    between atoms: _318  and  _319
REMARK  132  A    between atoms: _319  and  _320
REMARK  133  A    between atoms: _329  and  _331
REMARK  134  A    between atoms: _331  and  _332
REMARK  135  A    between atoms: _334  and  _336
REMARK  136  A    between atoms: _336  and  _337
REMARK  137  A    between atoms: _336  and  _339
REMARK  138  A    between atoms: _339  and  _340
REMARK  139  A    between atoms: _343  and  _345
REMARK  140  A    between atoms: _345  and  _346
REMARK  141  A    between atoms: _345  and  _348
REMARK  142  A    between atoms: _348  and  _349
REMARK  143  A    between atoms: _349  and  _350
REMARK  144  A    between atoms: _350  and  _351
REMARK  145  A    between atoms: _360  and  _362
REMARK  146  A    between atoms: _362  and  _363
REMARK  147  A    between atoms: _362  and  _365
REMARK  148  A    between atoms: _365  and  _366
REMARK  149  A    between atoms: _372  and  _374
REMARK  150  A    between atoms: _374  and  _375
REMARK  151  A    between atoms: _374  and  _377
REMARK  152  A    between atoms: _377  and  _378
REMARK  153  A    between atoms: _381  and  _383
REMARK  154  A    between atoms: _383  and  _384
REMARK  155  A    between atoms: _383  and  _386
REMARK  156  A    between atoms: _386  and  _387
REMARK  157  A    between atoms: _387  and  _388
REMARK  158  A    between atoms: _393  and  _395
REMARK  159  A    between atoms: _395  and  _396
REMARK  160  A    between atoms: _395  and  _398
REMARK  161  A    between atoms: _398  and  _399
REMARK  162  A    between atoms: _405  and  _407
REMARK  163  A    between atoms: _407  and  _408
REMARK  164  A    between atoms: _407  and  _410
REMARK  165  A    between atoms: _410  and  _411
REMARK  166  A    between atoms: _414  and  _416
REMARK  167  A    between atoms: _416  and  _417
REMARK  168  A    between atoms: _416  and  _419
REMARK  169  A    between atoms: _419  and  _420
REMARK  170  A    between atoms: _423  and  _425
REMARK  171  A    between atoms: _425  and  _426
REMARK  172  A    between atoms: _425  and  _428
REMARK  173  A    between atoms: _428  and  _429
REMARK  174  A    between atoms: _429  and  _430
REMARK  175  A    between atoms: _430  and  _431
REMARK  176  A    between atoms: _440  and  _442
REMARK  177  A    between atoms: _442  and  _443
REMARK  178  A    between atoms: _442  and  _445
REMARK  179  A    between atoms: _445  and  _446
REMARK  180  A    between atoms: _451  and  _453
REMARK  181  A    between atoms: _453  and  _454
REMARK  182  A    between atoms: _457  and  _459
REMARK  183  A    between atoms: _459  and  _460
REMARK  184  A    between atoms: _459  and  _462
REMARK  185  A    between atoms: _462  and  _463
REMARK  186  A    between atoms: _466  and  _468
REMARK  187  A    between atoms: _468  and  _469
REMARK  188  A    between atoms: _472  and  _474
REMARK  189  A    between atoms: _474  and  _475
REMARK  190  A    between atoms: _474  and  _477
REMARK  191  A    between atoms: _477  and  _478
REMARK  192  A    between atoms: _483  and  _484
REMARK  193  A    between atoms: _486  and  _488
REMARK  194  A    between atoms: _488  and  _489
REMARK  195  A    between atoms: _492  and  _494
REMARK  196  A    between atoms: _494  and  _495
REMARK  197  A    between atoms: _494  and  _497
REMARK  198  A    between atoms: _497  and  _498
REMARK  199  A    between atoms: _501  and  _503
REMARK  200  A    between atoms: _503  and  _504
REMARK  201  A    between atoms: _503  and  _506
REMARK  202  A    between atoms: _506  and  _507
REMARK  203  A    between atoms: _507  and  _508
REMARK  204  A    between atoms: _508  and  _509
REMARK  205  A    between atoms: _509  and  _510
REMARK  206  A    between atoms: _514  and  _516
REMARK  207  A    between atoms: _516  and  _517
REMARK  208  A    between atoms: _516  and  _519
REMARK  209  A    between atoms: _519  and  _520
REMARK  210  A    between atoms: _525  and  _526
REMARK  211  A    between atoms: _528  and  _530
REMARK  212  A    between atoms: _530  and  _531
REMARK  213  A    between atoms: _530  and  _533
REMARK  214  A    between atoms: _533  and  _534
REMARK  215  A    between atoms: _539  and  _541
REMARK  216  A    between atoms: _541  and  _542
REMARK  217  A    between atoms: _544  and  _546
REMARK  218  A    between atoms: _546  and  _547
REMARK  219  A    between atoms: _546  and  _549
REMARK  220  A    between atoms: _549  and  _550
REMARK  221  A    between atoms: _553  and  _555
REMARK  222  A    between atoms: _555  and  _556
REMARK  223  A    between atoms: _555  and  _558
REMARK  224  A    between atoms: _561  and  _563
REMARK  225  A    between atoms: _563  and  _564
REMARK  226  A    between atoms: _563  and  _566
REMARK  227  A    between atoms: _566  and  _567
REMARK  228  A    between atoms: _570  and  _572
REMARK  229  A    between atoms: _572  and  _573
REMARK  230  A    between atoms: _572  and  _575
REMARK  231  A    between atoms: _575  and  _576
REMARK  232  A    between atoms: _582  and  _584
REMARK  233  A    between atoms: _584  and  _585
REMARK  234  A    between atoms: _584  and  _587
REMARK  235  A    between atoms: _587  and  _588
REMARK  236  A    between atoms: _588  and  _589
REMARK  237  A    between atoms: _594  and  _596
REMARK  238  A    between atoms: _596  and  _597
REMARK  239  A    between atoms: _600  and  _602
REMARK  240  A    between atoms: _602  and  _603
REMARK  241  A    between atoms: _606  and  _608
REMARK  242  A    between atoms: _608  and  _609
REMARK  243  A    between atoms: _608  and  _611
REMARK  244  A    between atoms: _611  and  _612
REMARK  245  A    between atoms: _615  and  _617
REMARK  246  A    between atoms: _617  and  _618
REMARK  247  A    between atoms: _617  and  _620
REMARK  248  A    between atoms: _620  and  _621
REMARK  249  A    between atoms: _626  and  _627
REMARK  250  A    between atoms: _629  and  _631
REMARK  251  A    between atoms: _631  and  _632
REMARK  252  A    between atoms: _635  and  _637
REMARK  253  A    between atoms: _637  and  _638
REMARK  254  A    between atoms: _642  and  _643
REMARK  255  A    between atoms: _648  and  _650
REMARK  256  A    between atoms: _650  and  _651
REMARK  257  A    between atoms: _650  and  _653
REMARK  258  A    between atoms: _653  and  _654
REMARK  259  A    between atoms: _660  and  _662
REMARK  260  A    between atoms: _662  and  _663
REMARK  261  A    between atoms: _662  and  _665
REMARK  262  A    between atoms: _665  and  _666
REMARK  263  A    between atoms: _669  and  _671
REMARK  264  A    between atoms: _671  and  _672
REMARK  265  A    between atoms: _671  and  _674
REMARK  266  A    between atoms: _674  and  _675
REMARK  267  A    between atoms: _681  and  _683
REMARK  268  A    between atoms: _683  and  _684
REMARK  269  A    between atoms: _683  and  _686
REMARK  270  A    between atoms: _686  and  _687
REMARK  271  A    between atoms: _692  and  _693
REMARK  272  A    between atoms: _695  and  _697
REMARK  273  A    between atoms: _697  and  _698
REMARK  274  A    between atoms: _697  and  _700
REMARK  275  A    between atoms: _700  and  _701
REMARK  276  A    between atoms: _706  and  _707
REMARK  277  A    between atoms: _709  and  _711
REMARK  278  A    between atoms: _711  and  _712
REMARK  279  A    between atoms: _711  and  _714
REMARK  280  A    between atoms: _714  and  _715
REMARK  281  A    between atoms: _715  and  _716
REMARK  282  A    between atoms: _716  and  _717
REMARK  283  A    between atoms: _717  and  _718
REMARK  284  A    between atoms: _722  and  _724
REMARK  285  A    between atoms: _724  and  _725
REMARK  286  A    between atoms: _724  and  _727
REMARK                            x       y       z     vdW  Elec       q    Type
REMARK                         _______ _______ _______ _____ _____    ______ ____
ROOT
ATOM      1  O   HOH     1      30.998  -6.146  15.024  0.00  0.00    +0.000 OA
ENDROOT
TORSDOF 0
REMARK  Name = ../refined-set-2016/2euk/2euk_pocket.pdb
REMARK  286 active torsions:
REMARK  status: ('A' for Active; 'I' for Inactive)
REMARK    1  A    between atoms: _1  and  _5
REMARK    2  A    between atoms: _5  and  _6
REMARK    3  A    between atoms: _5  and  _8
REMARK    4  A    between atoms: _8  and  _9
REMARK    5  A    between atoms: _12  and  _14
REMARK    6  A    between atoms: _14  and  _15
REMARK    7  A    between atoms: _14  and  _17
REMARK    8  A    between atoms: _17  and  _18
REMARK    9  A    between atoms: _23  and  _25
REMARK   10  A    between atoms: _25  and  _26
REMARK   11  A    between atoms: _25  and  _28
REMARK   12  A    between atoms: _28  and  _29
REMARK   13  A    between atoms: _33  and  _34
REMARK   14  A    between atoms: _40  and  _41
REMARK   15  A    between atoms: _46  and  _48
REMARK   16  A    between atoms: _48  and  _49
REMARK   17  A    between atoms: _48  and  _51
REMARK   18  A    between atoms: _51  and  _52
REMARK   19  A    between atoms: _58  and  _60
REMARK   20  A    between atoms: _60  and  _61
REMARK   21  A    between atoms: _60  and  _63
REMARK   22  A    between atoms: _63  and  _64
REMARK   23  A    between atoms: _70  and  _72
REMARK   24  A    between atoms: _72  and  _73
REMARK   25  A    between atoms: _72  and  _75
REMARK   26  A    between atoms: _75  and  _76
REMARK   27  A    between atoms: _79  and  _81
REMARK   28  A    between atoms: _81  and  _82
REMARK   29  A    between atoms: _81  and  _84
REMARK   30  A    between atoms: _86  and  _88
REMARK   31  A    between atoms: _88  and  _89
REMARK   32  A    between atoms: _88  and  _91
REMARK   33  A    between atoms: _91  and  _92
REMARK   34  A    between atoms: _95  and  _97
REMARK   35  A    between atoms: _97  and  _98
REMARK   36  A    between atoms: _97  and  _100
REMARK   37  A    between atoms: _100  and  _101
REMARK   38  A    between atoms: _103  and  _105
REMARK   39  A    between atoms: _105  and  _106
REMARK   40  A    between atoms: _105  and  _108
REMARK   41  A    between atoms: _111  and  _113
REMARK   42  A    between atoms: _113  and  _114
REMARK   43  A    between atoms: _113  and  _116
REMARK   44  A    between atoms: _116  and  _117
REMARK   45  A    between atoms: _123  and  _125
REMARK   46  A    between atoms: _125  and  _126
REMARK   47  A    between atoms: _125  and  _128
REMARK   48  A    between atoms: _128  and  _129
REMARK   49  A    between atoms: _133  and  _134
REMARK   50  A    between atoms: _139  and  _141
REMARK   51  A    between atoms: _141  and  _142
REMARK   52  A    between atoms: _141  and  _144
REMARK   53  A    between atoms: _144  and  _145
REMARK   54  A    between atoms: _148  and  _150
REMARK   55  A    between atoms: _150  and  _151
REMARK   56  A    between atoms: _150  and  _153
REMARK   57  A    between atoms: _153  and  _154
REMARK   58  A    between atoms: _154  and  _155
REMARK   59  A    between atoms: _155  and  _156
REMARK   60  A    between atoms: _156  and  _157
REMARK   61  A    between atoms: _161  and  _163
REMARK   62  A    between atoms: _163  and  _164
REMARK   63  A    between atoms: _167  and  _169
REMARK   64  A    between atoms: _169  and  _170
REMARK   65  A    between atoms: _169  and  _172
REMARK   66  A    between atoms: _172  and  _173
REMARK   67  A    between atoms: _176  and  _178
REMARK   68  A    between atoms: _178  and  _179
REMARK   69  A    between atoms: _178  and  _181
REMARK   70  A    between atoms: _181  and  _182
REMARK   71  A    between atoms: _185  and  _187
REMARK   72  A    between atoms: _187  and  _188
REMARK   73  A    between atoms: _190  and  _192
REMARK   74  A    between atoms: _192  and  _193
REMARK   75  A    between atoms: _192  and  _195
REMARK   76  A    between atoms: _195  and  _196
REMARK   77  A    between atoms: _201  and  _203
REMARK   78  A    between atoms: _203  and  _204
REMARK   79  A    between atoms: _203  and  _206
REMARK   80  A    between atoms: _206  and  _207
REMARK   81  A    between atoms: _210  and  _212
REMARK   82  A    between atoms: _212  and  _213
REMARK   83  A    between atoms: _212  and  _215
REMARK   84  A    between atoms: _215  and  _216
REMARK   85  A    between atoms: _216  and  _217
REMARK   86  A    between atoms: _217  and  _218
REMARK   87  A    between atoms: _218  and  _219
REMARK   88  A    between atoms: _223  and  _225
REMARK   89  A    between atoms: _225  and  _226
REMARK   90  A    between atoms: _225  and  _228
REMARK   91  A    between atoms: _228  and  _229
REMARK   92  A    between atoms: _229  and  _230
REMARK   93  A    between atoms: _230  and  _231
REMARK   94  A    between atoms: _231  and  _232
REMARK   95  A    between atoms: _236  and  _238
REMARK   96  A    between atoms: _238  and  _239
REMARK   97  A    between atoms: _241  and  _243
REMARK   98  A    between atoms: _243  and  _244
REMARK   99  A    between atoms: _243  and  _246
REMARK  100  A    between atoms: _246  and  _247
REMARK  101  A    between atoms: _250  and  _252
REMARK  102  A    between atoms: _252  and  _253
REMARK  103  A    between atoms: _256  and  _258
REMARK  104  A    between atoms: _258  and  _259
REMARK  105  A    between atoms: _258  and  _261
REMARK  106  A    between atoms: _261  and  _262
REMARK  107  A    between atoms: _265  and  _267
REMARK  108  A    between atoms: _267  and  _268
REMARK  109  A    between atoms: _267  and  _270
REMARK  110  A    between atoms: _270  and  _271
REMARK  111  A    between atoms: _271  and  _272
REMARK  112  A    between atoms: _274  and  _276
REMARK  113  A    between atoms: _276  and  _277
REMARK  114  A    between atoms: _276  and  _279
REMARK  115  A    between atoms: _279  and  _280
REMARK  116  A    between atoms: _290  and  _292
REMARK  117  A    between atoms: _292  and  _293
REMARK  118  A    between atoms: _292  and  _295
REMARK  119  A    between atoms: _295  and  _296
REMARK  120  A    between atoms: _299  and  _301
REMARK  121  A    between atoms: _301  and  _302
REMARK  122  A    between atoms: _301  and  _304
REMARK  123  A    between atoms: _304  and  _305
REMARK  124  A    between atoms: _305  and  _306
REMARK  125  A    between atoms: _306  and  _307
REMARK  126  A    between atoms: _307  and  _308
REMARK  127  A    between atoms: _312  and  _314
REMARK  128  A    between atoms: _314  and  _315
REMARK  129  A    between atoms: _314  and  _317
REMARK  130  A    between atoms: _317  and  _318
REMARK  131  A    between atoms: _318  and  _319
REMARK  132  A    between atoms: _319  and  _320
REMARK  133  A    between atoms: _329  and  _331
REMARK  134  A    between atoms: _331  and  _332
REMARK  135  A    between atoms: _334  and  _336
REMARK  136  A    between atoms: _336  and  _337
REMARK  137  A    between atoms: _336  and  _339
REMARK  138  A    between atoms: _339  and  _340
REMARK  139  A    between atoms: _343  and  _345
REMARK  140  A    between atoms: _345  and  _346
REMARK  141  A    between atoms: _345  and  _348
REMARK  142  A    between atoms: _348  and  _349
REMARK  143  A    between atoms: _349  and  _350
REMARK  144  A    between atoms: _350  and  _351
REMARK  145  A    between atoms: _360  and  _362
REMARK  146  A    between atoms: _362  and  _363
REMARK  147  A    between atoms: _362  and  _365
REMARK  148  A    between atoms: _365  and  _366
REMARK  149  A    between atoms: _372  and  _374
REMARK  150  A    between atoms: _374  and  _375
REMARK  151  A    between atoms: _374  and  _377
REMARK  152  A    between atoms: _377  and  _378
REMARK  153  A    between atoms: _381  and  _383
REMARK  154  A    between atoms: _383  and  _384
REMARK  155  A    between atoms: _383  and  _386
REMARK  156  A    between atoms: _386  and  _387
REMARK  157  A    between atoms: _387  and  _388
REMARK  158  A    between atoms: _393  and  _395
REMARK  159  A    between atoms: _395  and  _396
REMARK  160  A    between atoms: _395  and  _398
REMARK  161  A    between atoms: _398  and  _399
REMARK  162  A    between atoms: _405  and  _407
REMARK  163  A    between atoms: _407  and  _408
REMARK  164  A    between atoms: _407  and  _410
REMARK  165  A    between atoms: _410  and  _411
REMARK  166  A    between atoms: _414  and  _416
REMARK  167  A    between atoms: _416  and  _417
REMARK  168  A    between atoms: _416  and  _419
REMARK  169  A    between atoms: _419  and  _420
REMARK  170  A    between atoms: _423  and  _425
REMARK  171  A    between atoms: _425  and  _426
REMARK  172  A    between atoms: _425  and  _428
REMARK  173  A    between atoms: _428  and  _429
REMARK  174  A    between atoms: _429  and  _430
REMARK  175  A    between atoms: _430  and  _431
REMARK  176  A    between atoms: _440  and  _442
REMARK  177  A    between atoms: _442  and  _443
REMARK  178  A    between atoms: _442  and  _445
REMARK  179  A    between atoms: _445  and  _446
REMARK  180  A    between atoms: _451  and  _453
REMARK  181  A    between atoms: _453  and  _454
REMARK  182  A    between atoms: _457  and  _459
REMARK  183  A    between atoms: _459  and  _460
REMARK  184  A    between atoms: _459  and  _462
REMARK  185  A    between atoms: _462  and  _463
REMARK  186  A    between atoms: _466  and  _468
REMARK  187  A    between atoms: _468  and  _469
REMARK  188  A    between atoms: _472  and  _474
REMARK  189  A    between atoms: _474  and  _475
REMARK  190  A    between atoms: _474  and  _477
REMARK  191  A    between atoms: _477  and  _478
REMARK  192  A    between atoms: _483  and  _484
REMARK  193  A    between atoms: _486  and  _488
REMARK  194  A    between atoms: _488  and  _489
REMARK  195  A    between atoms: _492  and  _494
REMARK  196  A    between atoms: _494  and  _495
REMARK  197  A    between atoms: _494  and  _497
REMARK  198  A    between atoms: _497  and  _498
REMARK  199  A    between atoms: _501  and  _503
REMARK  200  A    between atoms: _503  and  _504
REMARK  201  A    between atoms: _503  and  _506
REMARK  202  A    between atoms: _506  and  _507
REMARK  203  A    between atoms: _507  and  _508
REMARK  204  A    between atoms: _508  and  _509
REMARK  205  A    between atoms: _509  and  _510
REMARK  206  A    between atoms: _514  and  _516
REMARK  207  A    between atoms: _516  and  _517
REMARK  208  A    between atoms: _516  and  _519
REMARK  209  A    between atoms: _519  and  _520
REMARK  210  A    between atoms: _525  and  _526
REMARK  211  A    between atoms: _528  and  _530
REMARK  212  A    between atoms: _530  and  _531
REMARK  213  A    between atoms: _530  and  _533
REMARK  214  A    between atoms: _533  and  _534
REMARK  215  A    between atoms: _539  and  _541
REMARK  216  A    between atoms: _541  and  _542
REMARK  217  A    between atoms: _544  and  _546
REMARK  218  A    between atoms: _546  and  _547
REMARK  219  A    between atoms: _546  and  _549
REMARK  220  A    between atoms: _549  and  _550
REMARK  221  A    between atoms: _553  and  _555
REMARK  222  A    between atoms: _555  and  _556
REMARK  223  A    between atoms: _555  and  _558
REMARK  224  A    between atoms: _561  and  _563
REMARK  225  A    between atoms: _563  and  _564
REMARK  226  A    between atoms: _563  and  _566
REMARK  227  A    between atoms: _566  and  _567
REMARK  228  A    between atoms: _570  and  _572
REMARK  229  A    between atoms: _572  and  _573
REMARK  230  A    between atoms: _572  and  _575
REMARK  231  A    between atoms: _575  and  _576
REMARK  232  A    between atoms: _582  and  _584
REMARK  233  A    between atoms: _584  and  _585
REMARK  234  A    between atoms: _584  and  _587
REMARK  235  A    between atoms: _587  and  _588
REMARK  236  A    between atoms: _588  and  _589
REMARK  237  A    between atoms: _594  and  _596
REMARK  238  A    between atoms: _596  and  _597
REMARK  239  A    between atoms: _600  and  _602
REMARK  240  A    between atoms: _602  and  _603
REMARK  241  A    between atoms: _606  and  _608
REMARK  242  A    between atoms: _608  and  _609
REMARK  243  A    between atoms: _608  and  _611
REMARK  244  A    between atoms: _611  and  _612
REMARK  245  A    between atoms: _615  and  _617
REMARK  246  A    between atoms: _617  and  _618
REMARK  247  A    between atoms: _617  and  _620
REMARK  248  A    between atoms: _620  and  _621
REMARK  249  A    between atoms: _626  and  _627
REMARK  250  A    between atoms: _629  and  _631
REMARK  251  A    between atoms: _631  and  _632
REMARK  252  A    between atoms: _635  and  _637
REMARK  253  A    between atoms: _637  and  _638
REMARK  254  A    between atoms: _642  and  _643
REMARK  255  A    between atoms: _648  and  _650
REMARK  256  A    between atoms: _650  and  _651
REMARK  257  A    between atoms: _650  and  _653
REMARK  258  A    between atoms: _653  and  _654
REMARK  259  A    between atoms: _660  and  _662
REMARK  260  A    between atoms: _662  and  _663
REMARK  261  A    between atoms: _662  and  _665
REMARK  262  A    between atoms: _665  and  _666
REMARK  263  A    between atoms: _669  and  _671
REMARK  264  A    between atoms: _671  and  _672
REMARK  265  A    between atoms: _671  and  _674
REMARK  266  A    between atoms: _674  and  _675
REMARK  267  A    between atoms: _681  and  _683
REMARK  268  A    between atoms: _683  and  _684
REMARK  269  A    between atoms: _683  and  _686
REMARK  270  A    between atoms: _686  and  _687
REMARK  271  A    between atoms: _692  and  _693
REMARK  272  A    between atoms: _695  and  _697
REMARK  273  A    between atoms: _697  and  _698
REMARK  274  A    between atoms: _697  and  _700
REMARK  275  A    between atoms: _700  and  _701
REMARK  276  A    between atoms: _706  and  _707
REMARK  277  A    between atoms: _709  and  _711
REMARK  278  A    between atoms: _711  and  _712
REMARK  279  A    between atoms: _711  and  _714
REMARK  280  A    between atoms: _714  and  _715
REMARK  281  A    between atoms: _715  and  _716
REMARK  282  A    between atoms: _716  and  _717
REMARK  283  A    between atoms: _717  and  _718
REMARK  284  A    between atoms: _722  and  _724
REMARK  285  A    between atoms: _724  and  _725
REMARK  286  A    between atoms: _724  and  _727
REMARK                            x       y       z     vdW  Elec       q    Type
REMARK                         _______ _______ _______ _____ _____    ______ ____
ROOT
ATOM      1  O   HOH     1       1.187   5.996  17.739  0.00  0.00    +0.000 OA
ENDROOT
TORSDOF 0
REMARK  Name = ../refined-set-2016/2euk/2euk_pocket.pdb
REMARK  286 active torsions:
REMARK  status: ('A' for Active; 'I' for Inactive)
REMARK    1  A    between atoms: _1  and  _5
REMARK    2  A    between atoms: _5  and  _6
REMARK    3  A    between atoms: _5  and  _8
REMARK    4  A    between atoms: _8  and  _9
REMARK    5  A    between atoms: _12  and  _14
REMARK    6  A    between atoms: _14  and  _15
REMARK    7  A    between atoms: _14  and  _17
REMARK    8  A    between atoms: _17  and  _18
REMARK    9  A    between atoms: _23  and  _25
REMARK   10  A    between atoms: _25  and  _26
REMARK   11  A    between atoms: _25  and  _28
REMARK   12  A    between atoms: _28  and  _29
REMARK   13  A    between atoms: _33  and  _34
REMARK   14  A    between atoms: _40  and  _41
REMARK   15  A    between atoms: _46  and  _48
REMARK   16  A    between atoms: _48  and  _49
REMARK   17  A    between atoms: _48  and  _51
REMARK   18  A    between atoms: _51  and  _52
REMARK   19  A    between atoms: _58  and  _60
REMARK   20  A    between atoms: _60  and  _61
REMARK   21  A    between atoms: _60  and  _63
REMARK   22  A    between atoms: _63  and  _64
REMARK   23  A    between atoms: _70  and  _72
REMARK   24  A    between atoms: _72  and  _73
REMARK   25  A    between atoms: _72  and  _75
REMARK   26  A    between atoms: _75  and  _76
REMARK   27  A    between atoms: _79  and  _81
REMARK   28  A    between atoms: _81  and  _82
REMARK   29  A    between atoms: _81  and  _84
REMARK   30  A    between atoms: _86  and  _88
REMARK   31  A    between atoms: _88  and  _89
REMARK   32  A    between atoms: _88  and  _91
REMARK   33  A    between atoms: _91  and  _92
REMARK   34  A    between atoms: _95  and  _97
REMARK   35  A    between atoms: _97  and  _98
REMARK   36  A    between atoms: _97  and  _100
REMARK   37  A    between atoms: _100  and  _101
REMARK   38  A    between atoms: _103  and  _105
REMARK   39  A    between atoms: _105  and  _106
REMARK   40  A    between atoms: _105  and  _108
REMARK   41  A    between atoms: _111  and  _113
REMARK   42  A    between atoms: _113  and  _114
REMARK   43  A    between atoms: _113  and  _116
REMARK   44  A    between atoms: _116  and  _117
REMARK   45  A    between atoms: _123  and  _125
REMARK   46  A    between atoms: _125  and  _126
REMARK   47  A    between atoms: _125  and  _128
REMARK   48  A    between atoms: _128  and  _129
REMARK   49  A    between atoms: _133  and  _134
REMARK   50  A    between atoms: _139  and  _141
REMARK   51  A    between atoms: _141  and  _142
REMARK   52  A    between atoms: _141  and  _144
REMARK   53  A    between atoms: _144  and  _145
REMARK   54  A    between atoms: _148  and  _150
REMARK   55  A    between atoms: _150  and  _151
REMARK   56  A    between atoms: _150  and  _153
REMARK   57  A    between atoms: _153  and  _154
REMARK   58  A    between atoms: _154  and  _155
REMARK   59  A    between atoms: _155  and  _156
REMARK   60  A    between atoms: _156  and  _157
REMARK   61  A    between atoms: _161  and  _163
REMARK   62  A    between atoms: _163  and  _164
REMARK   63  A    between atoms: _167  and  _169
REMARK   64  A    between atoms: _169  and  _170
REMARK   65  A    between atoms: _169  and  _172
REMARK   66  A    between atoms: _172  and  _173
REMARK   67  A    between atoms: _176  and  _178
REMARK   68  A    between atoms: _178  and  _179
REMARK   69  A    between atoms: _178  and  _181
REMARK   70  A    between atoms: _181  and  _182
REMARK   71  A    between atoms: _185  and  _187
REMARK   72  A    between atoms: _187  and  _188
REMARK   73  A    between atoms: _190  and  _192
REMARK   74  A    between atoms: _192  and  _193
REMARK   75  A    between atoms: _192  and  _195
REMARK   76  A    between atoms: _195  and  _196
REMARK   77  A    between atoms: _201  and  _203
REMARK   78  A    between atoms: _203  and  _204
REMARK   79  A    between atoms: _203  and  _206
REMARK   80  A    between atoms: _206  and  _207
REMARK   81  A    between atoms: _210  and  _212
REMARK   82  A    between atoms: _212  and  _213
REMARK   83  A    between atoms: _212  and  _215
REMARK   84  A    between atoms: _215  and  _216
REMARK   85  A    between atoms: _216  and  _217
REMARK   86  A    between atoms: _217  and  _218
REMARK   87  A    between atoms: _218  and  _219
REMARK   88  A    between atoms: _223  and  _225
REMARK   89  A    between atoms: _225  and  _226
REMARK   90  A    between atoms: _225  and  _228
REMARK   91  A    between atoms: _228  and  _229
REMARK   92  A    between atoms: _229  and  _230
REMARK   93  A    between atoms: _230  and  _231
REMARK   94  A    between atoms: _231  and  _232
REMARK   95  A    between atoms: _236  and  _238
REMARK   96  A    between atoms: _238  and  _239
REMARK   97  A    between atoms: _241  and  _243
REMARK   98  A    between atoms: _243  and  _244
REMARK   99  A    between atoms: _243  and  _246
REMARK  100  A    between atoms: _246  and  _247
REMARK  101  A    between atoms: _250  and  _252
REMARK  102  A    between atoms: _252  and  _253
REMARK  103  A    between atoms: _256  and  _258
REMARK  104  A    between atoms: _258  and  _259
REMARK  105  A    between atoms: _258  and  _261
REMARK  106  A    between atoms: _261  and  _262
REMARK  107  A    between atoms: _265  and  _267
REMARK  108  A    between atoms: _267  and  _268
REMARK  109  A    between atoms: _267  and  _270
REMARK  110  A    between atoms: _270  and  _271
REMARK  111  A    between atoms: _271  and  _272
REMARK  112  A    between atoms: _274  and  _276
REMARK  113  A    between atoms: _276  and  _277
REMARK  114  A    between atoms: _276  and  _279
REMARK  115  A    between atoms: _279  and  _280
REMARK  116  A    between atoms: _290  and  _292
REMARK  117  A    between atoms: _292  and  _293
REMARK  118  A    between atoms: _292  and  _295
REMARK  119  A    between atoms: _295  and  _296
REMARK  120  A    between atoms: _299  and  _301
REMARK  121  A    between atoms: _301  and  _302
REMARK  122  A    between atoms: _301  and  _304
REMARK  123  A    between atoms: _304  and  _305
REMARK  124  A    between atoms: _305  and  _306
REMARK  125  A    between atoms: _306  and  _307
REMARK  126  A    between atoms: _307  and  _308
REMARK  127  A    between atoms: _312  and  _314
REMARK  128  A    between atoms: _314  and  _315
REMARK  129  A    between atoms: _314  and  _317
REMARK  130  A    between atoms: _317  and  _318
REMARK  131  A    between atoms: _318  and  _319
REMARK  132  A    between atoms: _319  and  _320
REMARK  133  A    between atoms: _329  and  _331
REMARK  134  A    between atoms: _331  and  _332
REMARK  135  A    between atoms: _334  and  _336
REMARK  136  A    between atoms: _336  and  _337
REMARK  137  A    between atoms: _336  and  _339
REMARK  138  A    between atoms: _339  and  _340
REMARK  139  A    between atoms: _343  and  _345
REMARK  140  A    between atoms: _345  and  _346
REMARK  141  A    between atoms: _345  and  _348
REMARK  142  A    between atoms: _348  and  _349
REMARK  143  A    between atoms: _349  and  _350
REMARK  144  A    between atoms: _350  and  _351
REMARK  145  A    between atoms: _360  and  _362
REMARK  146  A    between atoms: _362  and  _363
REMARK  147  A    between atoms: _362  and  _365
REMARK  148  A    between atoms: _365  and  _366
REMARK  149  A    between atoms: _372  and  _374
REMARK  150  A    between atoms: _374  and  _375
REMARK  151  A    between atoms: _374  and  _377
REMARK  152  A    between atoms: _377  and  _378
REMARK  153  A    between atoms: _381  and  _383
REMARK  154  A    between atoms: _383  and  _384
REMARK  155  A    between atoms: _383  and  _386
REMARK  156  A    between atoms: _386  and  _387
REMARK  157  A    between atoms: _387  and  _388
REMARK  158  A    between atoms: _393  and  _395
REMARK  159  A    between atoms: _395  and  _396
REMARK  160  A    between atoms: _395  and  _398
REMARK  161  A    between atoms: _398  and  _399
REMARK  162  A    between atoms: _405  and  _407
REMARK  163  A    between atoms: _407  and  _408
REMARK  164  A    between atoms: _407  and  _410
REMARK  165  A    between atoms: _410  and  _411
REMARK  166  A    between atoms: _414  and  _416
REMARK  167  A    between atoms: _416  and  _417
REMARK  168  A    between atoms: _416  and  _419
REMARK  169  A    between atoms: _419  and  _420
REMARK  170  A    between atoms: _423  and  _425
REMARK  171  A    between atoms: _425  and  _426
REMARK  172  A    between atoms: _425  and  _428
REMARK  173  A    between atoms: _428  and  _429
REMARK  174  A    between atoms: _429  and  _430
REMARK  175  A    between atoms: _430  and  _431
REMARK  176  A    between atoms: _440  and  _442
REMARK  177  A    between atoms: _442  and  _443
REMARK  178  A    between atoms: _442  and  _445
REMARK  179  A    between atoms: _445  and  _446
REMARK  180  A    between atoms: _451  and  _453
REMARK  181  A    between atoms: _453  and  _454
REMARK  182  A    between atoms: _457  and  _459
REMARK  183  A    between atoms: _459  and  _460
REMARK  184  A    between atoms: _459  and  _462
REMARK  185  A    between atoms: _462  and  _463
REMARK  186  A    between atoms: _466  and  _468
REMARK  187  A    between atoms: _468  and  _469
REMARK  188  A    between atoms: _472  and  _474
REMARK  189  A    between atoms: _474  and  _475
REMARK  190  A    between atoms: _474  and  _477
REMARK  191  A    between atoms: _477  and  _478
REMARK  192  A    between atoms: _483  and  _484
REMARK  193  A    between atoms: _486  and  _488
REMARK  194  A    between atoms: _488  and  _489
REMARK  195  A    between atoms: _492  and  _494
REMARK  196  A    between atoms: _494  and  _495
REMARK  197  A    between atoms: _494  and  _497
REMARK  198  A    between atoms: _497  and  _498
REMARK  199  A    between atoms: _501  and  _503
REMARK  200  A    between atoms: _503  and  _504
REMARK  201  A    between atoms: _503  and  _506
REMARK  202  A    between atoms: _506  and  _507
REMARK  203  A    between atoms: _507  and  _508
REMARK  204  A    between atoms: _508  and  _509
REMARK  205  A    between atoms: _509  and  _510
REMARK  206  A    between atoms: _514  and  _516
REMARK  207  A    between atoms: _516  and  _517
REMARK  208  A    between atoms: _516  and  _519
REMARK  209  A    between atoms: _519  and  _520
REMARK  210  A    between atoms: _525  and  _526
REMARK  211  A    between atoms: _528  and  _530
REMARK  212  A    between atoms: _530  and  _531
REMARK  213  A    between atoms: _530  and  _533
REMARK  214  A    between atoms: _533  and  _534
REMARK  215  A    between atoms: _539  and  _541
REMARK  216  A    between atoms: _541  and  _542
REMARK  217  A    between atoms: _544  and  _546
REMARK  218  A    between atoms: _546  and  _547
REMARK  219  A    between atoms: _546  and  _549
REMARK  220  A    between atoms: _549  and  _550
REMARK  221  A    between atoms: _553  and  _555
REMARK  222  A    between atoms: _555  and  _556
REMARK  223  A    between atoms: _555  and  _558
REMARK  224  A    between atoms: _561  and  _563
REMARK  225  A    between atoms: _563  and  _564
REMARK  226  A    between atoms: _563  and  _566
REMARK  227  A    between atoms: _566  and  _567
REMARK  228  A    between atoms: _570  and  _572
REMARK  229  A    between atoms: _572  and  _573
REMARK  230  A    between atoms: _572  and  _575
REMARK  231  A    between atoms: _575  and  _576
REMARK  232  A    between atoms: _582  and  _584
REMARK  233  A    between atoms: _584  and  _585
REMARK  234  A    between atoms: _584  and  _587
REMARK  235  A    between atoms: _587  and  _588
REMARK  236  A    between atoms: _588  and  _589
REMARK  237  A    between atoms: _594  and  _596
REMARK  238  A    between atoms: _596  and  _597
REMARK  239  A    between atoms: _600  and  _602
REMARK  240  A    between atoms: _602  and  _603
REMARK  241  A    between atoms: _606  and  _608
REMARK  242  A    between atoms: _608  and  _609
REMARK  243  A    between atoms: _608  and  _611
REMARK  244  A    between atoms: _611  and  _612
REMARK  245  A    between atoms: _615  and  _617
REMARK  246  A    between atoms: _617  and  _618
REMARK  247  A    between atoms: _617  and  _620
REMARK  248  A    between atoms: _620  and  _621
REMARK  249  A    between atoms: _626  and  _627
REMARK  250  A    between atoms: _629  and  _631
REMARK  251  A    between atoms: _631  and  _632
REMARK  252  A    between atoms: _635  and  _637
REMARK  253  A    between atoms: _637  and  _638
REMARK  254  A    between atoms: _642  and  _643
REMARK  255  A    between atoms: _648  and  _650
REMARK  256  A    between atoms: _650  and  _651
REMARK  257  A    between atoms: _650  and  _653
REMARK  258  A    between atoms: _653  and  _654
REMARK  259  A    between atoms: _660  and  _662
REMARK  260  A    between atoms: _662  and  _663
REMARK  261  A    between atoms: _662  and  _665
REMARK  262  A    between atoms: _665  and  _666
REMARK  263  A    between atoms: _669  and  _671
REMARK  264  A    between atoms: _671  and  _672
REMARK  265  A    between atoms: _671  and  _674
REMARK  266  A    between atoms: _674  and  _675
REMARK  267  A    between atoms: _681  and  _683
REMARK  268  A    between atoms: _683  and  _684
REMARK  269  A    between atoms: _683  and  _686
REMARK  270  A    between atoms: _686  and  _687
REMARK  271  A    between atoms: _692  and  _693
REMARK  272  A    between atoms: _695  and  _697
REMARK  273  A    between atoms: _697  and  _698
REMARK  274  A    between atoms: _697  and  _700
REMARK  275  A    between atoms: _700  and  _701
REMARK  276  A    between atoms: _706  and  _707
REMARK  277  A    between atoms: _709  and  _711
REMARK  278  A    between atoms: _711  and  _712
REMARK  279  A    between atoms: _711  and  _714
REMARK  280  A    between atoms: _714  and  _715
REMARK  281  A    between atoms: _715  and  _716
REMARK  282  A    between atoms: _716  and  _717
REMARK  283  A    between atoms: _717  and  _718
REMARK  284  A    between atoms: _722  and  _724
REMARK  285  A    between atoms: _724  and  _725
REMARK  286  A    between atoms: _724  and  _727
REMARK                            x       y       z     vdW  Elec       q    Type
REMARK                         _______ _______ _______ _____ _____    ______ ____
ROOT
ATOM      1  O   HOH     1      27.373   4.281  18.468  0.00  0.00    +0.000 OA
ENDROOT
TORSDOF 0
REMARK  Name = ../refined-set-2016/2euk/2euk_pocket.pdb
REMARK  286 active torsions:
REMARK  status: ('A' for Active; 'I' for Inactive)
REMARK    1  A    between atoms: _1  and  _5
REMARK    2  A    between atoms: _5  and  _6
REMARK    3  A    between atoms: _5  and  _8
REMARK    4  A    between atoms: _8  and  _9
REMARK    5  A    between atoms: _12  and  _14
REMARK    6  A    between atoms: _14  and  _15
REMARK    7  A    between atoms: _14  and  _17
REMARK    8  A    between atoms: _17  and  _18
REMARK    9  A    between atoms: _23  and  _25
REMARK   10  A    between atoms: _25  and  _26
REMARK   11  A    between atoms: _25  and  _28
REMARK   12  A    between atoms: _28  and  _29
REMARK   13  A    between atoms: _33  and  _34
REMARK   14  A    between atoms: _40  and  _41
REMARK   15  A    between atoms: _46  and  _48
REMARK   16  A    between atoms: _48  and  _49
REMARK   17  A    between atoms: _48  and  _51
REMARK   18  A    between atoms: _51  and  _52
REMARK   19  A    between atoms: _58  and  _60
REMARK   20  A    between atoms: _60  and  _61
REMARK   21  A    between atoms: _60  and  _63
REMARK   22  A    between atoms: _63  and  _64
REMARK   23  A    between atoms: _70  and  _72
REMARK   24  A    between atoms: _72  and  _73
REMARK   25  A    between atoms: _72  and  _75
REMARK   26  A    between atoms: _75  and  _76
REMARK   27  A    between atoms: _79  and  _81
REMARK   28  A    between atoms: _81  and  _82
REMARK   29  A    between atoms: _81  and  _84
REMARK   30  A    between atoms: _86  and  _88
REMARK   31  A    between atoms: _88  and  _89
REMARK   32  A    between atoms: _88  and  _91
REMARK   33  A    between atoms: _91  and  _92
REMARK   34  A    between atoms: _95  and  _97
REMARK   35  A    between atoms: _97  and  _98
REMARK   36  A    between atoms: _97  and  _100
REMARK   37  A    between atoms: _100  and  _101
REMARK   38  A    between atoms: _103  and  _105
REMARK   39  A    between atoms: _105  and  _106
REMARK   40  A    between atoms: _105  and  _108
REMARK   41  A    between atoms: _111  and  _113
REMARK   42  A    between atoms: _113  and  _114
REMARK   43  A    between atoms: _113  and  _116
REMARK   44  A    between atoms: _116  and  _117
REMARK   45  A    between atoms: _123  and  _125
REMARK   46  A    between atoms: _125  and  _126
REMARK   47  A    between atoms: _125  and  _128
REMARK   48  A    between atoms: _128  and  _129
REMARK   49  A    between atoms: _133  and  _134
REMARK   50  A    between atoms: _139  and  _141
REMARK   51  A    between atoms: _141  and  _142
REMARK   52  A    between atoms: _141  and  _144
REMARK   53  A    between atoms: _144  and  _145
REMARK   54  A    between atoms: _148  and  _150
REMARK   55  A    between atoms: _150  and  _151
REMARK   56  A    between atoms: _150  and  _153
REMARK   57  A    between atoms: _153  and  _154
REMARK   58  A    between atoms: _154  and  _155
REMARK   59  A    between atoms: _155  and  _156
REMARK   60  A    between atoms: _156  and  _157
REMARK   61  A    between atoms: _161  and  _163
REMARK   62  A    between atoms: _163  and  _164
REMARK   63  A    between atoms: _167  and  _169
REMARK   64  A    between atoms: _169  and  _170
REMARK   65  A    between atoms: _169  and  _172
REMARK   66  A    between atoms: _172  and  _173
REMARK   67  A    between atoms: _176  and  _178
REMARK   68  A    between atoms: _178  and  _179
REMARK   69  A    between atoms: _178  and  _181
REMARK   70  A    between atoms: _181  and  _182
REMARK   71  A    between atoms: _185  and  _187
REMARK   72  A    between atoms: _187  and  _188
REMARK   73  A    between atoms: _190  and  _192
REMARK   74  A    between atoms: _192  and  _193
REMARK   75  A    between atoms: _192  and  _195
REMARK   76  A    between atoms: _195  and  _196
REMARK   77  A    between atoms: _201  and  _203
REMARK   78  A    between atoms: _203  and  _204
REMARK   79  A    between atoms: _203  and  _206
REMARK   80  A    between atoms: _206  and  _207
REMARK   81  A    between atoms: _210  and  _212
REMARK   82  A    between atoms: _212  and  _213
REMARK   83  A    between atoms: _212  and  _215
REMARK   84  A    between atoms: _215  and  _216
REMARK   85  A    between atoms: _216  and  _217
REMARK   86  A    between atoms: _217  and  _218
REMARK   87  A    between atoms: _218  and  _219
REMARK   88  A    between atoms: _223  and  _225
REMARK   89  A    between atoms: _225  and  _226
REMARK   90  A    between atoms: _225  and  _228
REMARK   91  A    between atoms: _228  and  _229
REMARK   92  A    between atoms: _229  and  _230
REMARK   93  A    between atoms: _230  and  _231
REMARK   94  A    between atoms: _231  and  _232
REMARK   95  A    between atoms: _236  and  _238
REMARK   96  A    between atoms: _238  and  _239
REMARK   97  A    between atoms: _241  and  _243
REMARK   98  A    between atoms: _243  and  _244
REMARK   99  A    between atoms: _243  and  _246
REMARK  100  A    between atoms: _246  and  _247
REMARK  101  A    between atoms: _250  and  _252
REMARK  102  A    between atoms: _252  and  _253
REMARK  103  A    between atoms: _256  and  _258
REMARK  104  A    between atoms: _258  and  _259
REMARK  105  A    between atoms: _258  and  _261
REMARK  106  A    between atoms: _261  and  _262
REMARK  107  A    between atoms: _265  and  _267
REMARK  108  A    between atoms: _267  and  _268
REMARK  109  A    between atoms: _267  and  _270
REMARK  110  A    between atoms: _270  and  _271
REMARK  111  A    between atoms: _271  and  _272
REMARK  112  A    between atoms: _274  and  _276
REMARK  113  A    between atoms: _276  and  _277
REMARK  114  A    between atoms: _276  and  _279
REMARK  115  A    between atoms: _279  and  _280
REMARK  116  A    between atoms: _290  and  _292
REMARK  117  A    between atoms: _292  and  _293
REMARK  118  A    between atoms: _292  and  _295
REMARK  119  A    between atoms: _295  and  _296
REMARK  120  A    between atoms: _299  and  _301
REMARK  121  A    between atoms: _301  and  _302
REMARK  122  A    between atoms: _301  and  _304
REMARK  123  A    between atoms: _304  and  _305
REMARK  124  A    between atoms: _305  and  _306
REMARK  125  A    between atoms: _306  and  _307
REMARK  126  A    between atoms: _307  and  _308
REMARK  127  A    between atoms: _312  and  _314
REMARK  128  A    between atoms: _314  and  _315
REMARK  129  A    between atoms: _314  and  _317
REMARK  130  A    between atoms: _317  and  _318
REMARK  131  A    between atoms: _318  and  _319
REMARK  132  A    between atoms: _319  and  _320
REMARK  133  A    between atoms: _329  and  _331
REMARK  134  A    between atoms: _331  and  _332
REMARK  135  A    between atoms: _334  and  _336
REMARK  136  A    between atoms: _336  and  _337
REMARK  137  A    between atoms: _336  and  _339
REMARK  138  A    between atoms: _339  and  _340
REMARK  139  A    between atoms: _343  and  _345
REMARK  140  A    between atoms: _345  and  _346
REMARK  141  A    between atoms: _345  and  _348
REMARK  142  A    between atoms: _348  and  _349
REMARK  143  A    between atoms: _349  and  _350
REMARK  144  A    between atoms: _350  and  _351
REMARK  145  A    between atoms: _360  and  _362
REMARK  146  A    between atoms: _362  and  _363
REMARK  147  A    between atoms: _362  and  _365
REMARK  148  A    between atoms: _365  and  _366
REMARK  149  A    between atoms: _372  and  _374
REMARK  150  A    between atoms: _374  and  _375
REMARK  151  A    between atoms: _374  and  _377
REMARK  152  A    between atoms: _377  and  _378
REMARK  153  A    between atoms: _381  and  _383
REMARK  154  A    between atoms: _383  and  _384
REMARK  155  A    between atoms: _383  and  _386
REMARK  156  A    between atoms: _386  and  _387
REMARK  157  A    between atoms: _387  and  _388
REMARK  158  A    between atoms: _393  and  _395
REMARK  159  A    between atoms: _395  and  _396
REMARK  160  A    between atoms: _395  and  _398
REMARK  161  A    between atoms: _398  and  _399
REMARK  162  A    between atoms: _405  and  _407
REMARK  163  A    between atoms: _407  and  _408
REMARK  164  A    between atoms: _407  and  _410
REMARK  165  A    between atoms: _410  and  _411
REMARK  166  A    between atoms: _414  and  _416
REMARK  167  A    between atoms: _416  and  _417
REMARK  168  A    between atoms: _416  and  _419
REMARK  169  A    between atoms: _419  and  _420
REMARK  170  A    between atoms: _423  and  _425
REMARK  171  A    between atoms: _425  and  _426
REMARK  172  A    between atoms: _425  and  _428
REMARK  173  A    between atoms: _428  and  _429
REMARK  174  A    between atoms: _429  and  _430
REMARK  175  A    between atoms: _430  and  _431
REMARK  176  A    between atoms: _440  and  _442
REMARK  177  A    between atoms: _442  and  _443
REMARK  178  A    between atoms: _442  and  _445
REMARK  179  A    between atoms: _445  and  _446
REMARK  180  A    between atoms: _451  and  _453
REMARK  181  A    between atoms: _453  and  _454
REMARK  182  A    between atoms: _457  and  _459
REMARK  183  A    between atoms: _459  and  _460
REMARK  184  A    between atoms: _459  and  _462
REMARK  185  A    between atoms: _462  and  _463
REMARK  186  A    between atoms: _466  and  _468
REMARK  187  A    between atoms: _468  and  _469
REMARK  188  A    between atoms: _472  and  _474
REMARK  189  A    between atoms: _474  and  _475
REMARK  190  A    between atoms: _474  and  _477
REMARK  191  A    between atoms: _477  and  _478
REMARK  192  A    between atoms: _483  and  _484
REMARK  193  A    between atoms: _486  and  _488
REMARK  194  A    between atoms: _488  and  _489
REMARK  195  A    between atoms: _492  and  _494
REMARK  196  A    between atoms: _494  and  _495
REMARK  197  A    between atoms: _494  and  _497
REMARK  198  A    between atoms: _497  and  _498
REMARK  199  A    between atoms: _501  and  _503
REMARK  200  A    between atoms: _503  and  _504
REMARK  201  A    between atoms: _503  and  _506
REMARK  202  A    between atoms: _506  and  _507
REMARK  203  A    between atoms: _507  and  _508
REMARK  204  A    between atoms: _508  and  _509
REMARK  205  A    between atoms: _509  and  _510
REMARK  206  A    between atoms: _514  and  _516
REMARK  207  A    between atoms: _516  and  _517
REMARK  208  A    between atoms: _516  and  _519
REMARK  209  A    between atoms: _519  and  _520
REMARK  210  A    between atoms: _525  and  _526
REMARK  211  A    between atoms: _528  and  _530
REMARK  212  A    between atoms: _530  and  _531
REMARK  213  A    between atoms: _530  and  _533
REMARK  214  A    between atoms: _533  and  _534
REMARK  215  A    between atoms: _539  and  _541
REMARK  216  A    between atoms: _541  and  _542
REMARK  217  A    between atoms: _544  and  _546
REMARK  218  A    between atoms: _546  and  _547
REMARK  219  A    between atoms: _546  and  _549
REMARK  220  A    between atoms: _549  and  _550
REMARK  221  A    between atoms: _553  and  _555
REMARK  222  A    between atoms: _555  and  _556
REMARK  223  A    between atoms: _555  and  _558
REMARK  224  A    between atoms: _561  and  _563
REMARK  225  A    between atoms: _563  and  _564
REMARK  226  A    between atoms: _563  and  _566
REMARK  227  A    between atoms: _566  and  _567
REMARK  228  A    between atoms: _570  and  _572
REMARK  229  A    between atoms: _572  and  _573
REMARK  230  A    between atoms: _572  and  _575
REMARK  231  A    between atoms: _575  and  _576
REMARK  232  A    between atoms: _582  and  _584
REMARK  233  A    between atoms: _584  and  _585
REMARK  234  A    between atoms: _584  and  _587
REMARK  235  A    between atoms: _587  and  _588
REMARK  236  A    between atoms: _588  and  _589
REMARK  237  A    between atoms: _594  and  _596
REMARK  238  A    between atoms: _596  and  _597
REMARK  239  A    between atoms: _600  and  _602
REMARK  240  A    between atoms: _602  and  _603
REMARK  241  A    between atoms: _606  and  _608
REMARK  242  A    between atoms: _608  and  _609
REMARK  243  A    between atoms: _608  and  _611
REMARK  244  A    between atoms: _611  and  _612
REMARK  245  A    between atoms: _615  and  _617
REMARK  246  A    between atoms: _617  and  _618
REMARK  247  A    between atoms: _617  and  _620
REMARK  248  A    between atoms: _620  and  _621
REMARK  249  A    between atoms: _626  and  _627
REMARK  250  A    between atoms: _629  and  _631
REMARK  251  A    between atoms: _631  and  _632
REMARK  252  A    between atoms: _635  and  _637
REMARK  253  A    between atoms: _637  and  _638
REMARK  254  A    between atoms: _642  and  _643
REMARK  255  A    between atoms: _648  and  _650
REMARK  256  A    between atoms: _650  and  _651
REMARK  257  A    between atoms: _650  and  _653
REMARK  258  A    between atoms: _653  and  _654
REMARK  259  A    between atoms: _660  and  _662
REMARK  260  A    between atoms: _662  and  _663
REMARK  261  A    between atoms: _662  and  _665
REMARK  262  A    between atoms: _665  and  _666
REMARK  263  A    between atoms: _669  and  _671
REMARK  264  A    between atoms: _671  and  _672
REMARK  265  A    between atoms: _671  and  _674
REMARK  266  A    between atoms: _674  and  _675
REMARK  267  A    between atoms: _681  and  _683
REMARK  268  A    between atoms: _683  and  _684
REMARK  269  A    between atoms: _683  and  _686
REMARK  270  A    between atoms: _686  and  _687
REMARK  271  A    between atoms: _692  and  _693
REMARK  272  A    between atoms: _695  and  _697
REMARK  273  A    between atoms: _697  and  _698
REMARK  274  A    between atoms: _697  and  _700
REMARK  275  A    between atoms: _700  and  _701
REMARK  276  A    between atoms: _706  and  _707
REMARK  277  A    between atoms: _709  and  _711
REMARK  278  A    between atoms: _711  and  _712
REMARK  279  A    between atoms: _711  and  _714
REMARK  280  A    between atoms: _714  and  _715
REMARK  281  A    between atoms: _715  and  _716
REMARK  282  A    between atoms: _716  and  _717
REMARK  283  A    between atoms: _717  and  _718
REMARK  284  A    between atoms: _722  and  _724
REMARK  285  A    between atoms: _724  and  _725
REMARK  286  A    between atoms: _724  and  _727
REMARK                            x       y       z     vdW  Elec       q    Type
REMARK                         _______ _______ _______ _____ _____    ______ ____
ROOT
ATOM      1  O   HOH     1      25.006  -1.556  21.093  0.00  0.00    +0.000 OA
ENDROOT
TORSDOF 0
REMARK  Name = ../refined-set-2016/2euk/2euk_pocket.pdb
REMARK  286 active torsions:
REMARK  status: ('A' for Active; 'I' for Inactive)
REMARK    1  A    between atoms: _1  and  _5
REMARK    2  A    between atoms: _5  and  _6
REMARK    3  A    between atoms: _5  and  _8
REMARK    4  A    between atoms: _8  and  _9
REMARK    5  A    between atoms: _12  and  _14
REMARK    6  A    between atoms: _14  and  _15
REMARK    7  A    between atoms: _14  and  _17
REMARK    8  A    between atoms: _17  and  _18
REMARK    9  A    between atoms: _23  and  _25
REMARK   10  A    between atoms: _25  and  _26
REMARK   11  A    between atoms: _25  and  _28
REMARK   12  A    between atoms: _28  and  _29
REMARK   13  A    between atoms: _33  and  _34
REMARK   14  A    between atoms: _40  and  _41
REMARK   15  A    between atoms: _46  and  _48
REMARK   16  A    between atoms: _48  and  _49
REMARK   17  A    between atoms: _48  and  _51
REMARK   18  A    between atoms: _51  and  _52
REMARK   19  A    between atoms: _58  and  _60
REMARK   20  A    between atoms: _60  and  _61
REMARK   21  A    between atoms: _60  and  _63
REMARK   22  A    between atoms: _63  and  _64
REMARK   23  A    between atoms: _70  and  _72
REMARK   24  A    between atoms: _72  and  _73
REMARK   25  A    between atoms: _72  and  _75
REMARK   26  A    between atoms: _75  and  _76
REMARK   27  A    between atoms: _79  and  _81
REMARK   28  A    between atoms: _81  and  _82
REMARK   29  A    between atoms: _81  and  _84
REMARK   30  A    between atoms: _86  and  _88
REMARK   31  A    between atoms: _88  and  _89
REMARK   32  A    between atoms: _88  and  _91
REMARK   33  A    between atoms: _91  and  _92
REMARK   34  A    between atoms: _95  and  _97
REMARK   35  A    between atoms: _97  and  _98
REMARK   36  A    between atoms: _97  and  _100
REMARK   37  A    between atoms: _100  and  _101
REMARK   38  A    between atoms: _103  and  _105
REMARK   39  A    between atoms: _105  and  _106
REMARK   40  A    between atoms: _105  and  _108
REMARK   41  A    between atoms: _111  and  _113
REMARK   42  A    between atoms: _113  and  _114
REMARK   43  A    between atoms: _113  and  _116
REMARK   44  A    between atoms: _116  and  _117
REMARK   45  A    between atoms: _123  and  _125
REMARK   46  A    between atoms: _125  and  _126
REMARK   47  A    between atoms: _125  and  _128
REMARK   48  A    between atoms: _128  and  _129
REMARK   49  A    between atoms: _133  and  _134
REMARK   50  A    between atoms: _139  and  _141
REMARK   51  A    between atoms: _141  and  _142
REMARK   52  A    between atoms: _141  and  _144
REMARK   53  A    between atoms: _144  and  _145
REMARK   54  A    between atoms: _148  and  _150
REMARK   55  A    between atoms: _150  and  _151
REMARK   56  A    between atoms: _150  and  _153
REMARK   57  A    between atoms: _153  and  _154
REMARK   58  A    between atoms: _154  and  _155
REMARK   59  A    between atoms: _155  and  _156
REMARK   60  A    between atoms: _156  and  _157
REMARK   61  A    between atoms: _161  and  _163
REMARK   62  A    between atoms: _163  and  _164
REMARK   63  A    between atoms: _167  and  _169
REMARK   64  A    between atoms: _169  and  _170
REMARK   65  A    between atoms: _169  and  _172
REMARK   66  A    between atoms: _172  and  _173
REMARK   67  A    between atoms: _176  and  _178
REMARK   68  A    between atoms: _178  and  _179
REMARK   69  A    between atoms: _178  and  _181
REMARK   70  A    between atoms: _181  and  _182
REMARK   71  A    between atoms: _185  and  _187
REMARK   72  A    between atoms: _187  and  _188
REMARK   73  A    between atoms: _190  and  _192
REMARK   74  A    between atoms: _192  and  _193
REMARK   75  A    between atoms: _192  and  _195
REMARK   76  A    between atoms: _195  and  _196
REMARK   77  A    between atoms: _201  and  _203
REMARK   78  A    between atoms: _203  and  _204
REMARK   79  A    between atoms: _203  and  _206
REMARK   80  A    between atoms: _206  and  _207
REMARK   81  A    between atoms: _210  and  _212
REMARK   82  A    between atoms: _212  and  _213
REMARK   83  A    between atoms: _212  and  _215
REMARK   84  A    between atoms: _215  and  _216
REMARK   85  A    between atoms: _216  and  _217
REMARK   86  A    between atoms: _217  and  _218
REMARK   87  A    between atoms: _218  and  _219
REMARK   88  A    between atoms: _223  and  _225
REMARK   89  A    between atoms: _225  and  _226
REMARK   90  A    between atoms: _225  and  _228
REMARK   91  A    between atoms: _228  and  _229
REMARK   92  A    between atoms: _229  and  _230
REMARK   93  A    between atoms: _230  and  _231
REMARK   94  A    between atoms: _231  and  _232
REMARK   95  A    between atoms: _236  and  _238
REMARK   96  A    between atoms: _238  and  _239
REMARK   97  A    between atoms: _241  and  _243
REMARK   98  A    between atoms: _243  and  _244
REMARK   99  A    between atoms: _243  and  _246
REMARK  100  A    between atoms: _246  and  _247
REMARK  101  A    between atoms: _250  and  _252
REMARK  102  A    between atoms: _252  and  _253
REMARK  103  A    between atoms: _256  and  _258
REMARK  104  A    between atoms: _258  and  _259
REMARK  105  A    between atoms: _258  and  _261
REMARK  106  A    between atoms: _261  and  _262
REMARK  107  A    between atoms: _265  and  _267
REMARK  108  A    between atoms: _267  and  _268
REMARK  109  A    between atoms: _267  and  _270
REMARK  110  A    between atoms: _270  and  _271
REMARK  111  A    between atoms: _271  and  _272
REMARK  112  A    between atoms: _274  and  _276
REMARK  113  A    between atoms: _276  and  _277
REMARK  114  A    between atoms: _276  and  _279
REMARK  115  A    between atoms: _279  and  _280
REMARK  116  A    between atoms: _290  and  _292
REMARK  117  A    between atoms: _292  and  _293
REMARK  118  A    between atoms: _292  and  _295
REMARK  119  A    between atoms: _295  and  _296
REMARK  120  A    between atoms: _299  and  _301
REMARK  121  A    between atoms: _301  and  _302
REMARK  122  A    between atoms: _301  and  _304
REMARK  123  A    between atoms: _304  and  _305
REMARK  124  A    between atoms: _305  and  _306
REMARK  125  A    between atoms: _306  and  _307
REMARK  126  A    between atoms: _307  and  _308
REMARK  127  A    between atoms: _312  and  _314
REMARK  128  A    between atoms: _314  and  _315
REMARK  129  A    between atoms: _314  and  _317
REMARK  130  A    between atoms: _317  and  _318
REMARK  131  A    between atoms: _318  and  _319
REMARK  132  A    between atoms: _319  and  _320
REMARK  133  A    between atoms: _329  and  _331
REMARK  134  A    between atoms: _331  and  _332
REMARK  135  A    between atoms: _334  and  _336
REMARK  136  A    between atoms: _336  and  _337
REMARK  137  A    between atoms: _336  and  _339
REMARK  138  A    between atoms: _339  and  _340
REMARK  139  A    between atoms: _343  and  _345
REMARK  140  A    between atoms: _345  and  _346
REMARK  141  A    between atoms: _345  and  _348
REMARK  142  A    between atoms: _348  and  _349
REMARK  143  A    between atoms: _349  and  _350
REMARK  144  A    between atoms: _350  and  _351
REMARK  145  A    between atoms: _360  and  _362
REMARK  146  A    between atoms: _362  and  _363
REMARK  147  A    between atoms: _362  and  _365
REMARK  148  A    between atoms: _365  and  _366
REMARK  149  A    between atoms: _372  and  _374
REMARK  150  A    between atoms: _374  and  _375
REMARK  151  A    between atoms: _374  and  _377
REMARK  152  A    between atoms: _377  and  _378
REMARK  153  A    between atoms: _381  and  _383
REMARK  154  A    between atoms: _383  and  _384
REMARK  155  A    between atoms: _383  and  _386
REMARK  156  A    between atoms: _386  and  _387
REMARK  157  A    between atoms: _387  and  _388
REMARK  158  A    between atoms: _393  and  _395
REMARK  159  A    between atoms: _395  and  _396
REMARK  160  A    between atoms: _395  and  _398
REMARK  161  A    between atoms: _398  and  _399
REMARK  162  A    between atoms: _405  and  _407
REMARK  163  A    between atoms: _407  and  _408
REMARK  164  A    between atoms: _407  and  _410
REMARK  165  A    between atoms: _410  and  _411
REMARK  166  A    between atoms: _414  and  _416
REMARK  167  A    between atoms: _416  and  _417
REMARK  168  A    between atoms: _416  and  _419
REMARK  169  A    between atoms: _419  and  _420
REMARK  170  A    between atoms: _423  and  _425
REMARK  171  A    between atoms: _425  and  _426
REMARK  172  A    between atoms: _425  and  _428
REMARK  173  A    between atoms: _428  and  _429
REMARK  174  A    between atoms: _429  and  _430
REMARK  175  A    between atoms: _430  and  _431
REMARK  176  A    between atoms: _440  and  _442
REMARK  177  A    between atoms: _442  and  _443
REMARK  178  A    between atoms: _442  and  _445
REMARK  179  A    between atoms: _445  and  _446
REMARK  180  A    between atoms: _451  and  _453
REMARK  181  A    between atoms: _453  and  _454
REMARK  182  A    between atoms: _457  and  _459
REMARK  183  A    between atoms: _459  and  _460
REMARK  184  A    between atoms: _459  and  _462
REMARK  185  A    between atoms: _462  and  _463
REMARK  186  A    between atoms: _466  and  _468
REMARK  187  A    between atoms: _468  and  _469
REMARK  188  A    between atoms: _472  and  _474
REMARK  189  A    between atoms: _474  and  _475
REMARK  190  A    between atoms: _474  and  _477
REMARK  191  A    between atoms: _477  and  _478
REMARK  192  A    between atoms: _483  and  _484
REMARK  193  A    between atoms: _486  and  _488
REMARK  194  A    between atoms: _488  and  _489
REMARK  195  A    between atoms: _492  and  _494
REMARK  196  A    between atoms: _494  and  _495
REMARK  197  A    between atoms: _494  and  _497
REMARK  198  A    between atoms: _497  and  _498
REMARK  199  A    between atoms: _501  and  _503
REMARK  200  A    between atoms: _503  and  _504
REMARK  201  A    between atoms: _503  and  _506
REMARK  202  A    between atoms: _506  and  _507
REMARK  203  A    between atoms: _507  and  _508
REMARK  204  A    between atoms: _508  and  _509
REMARK  205  A    between atoms: _509  and  _510
REMARK  206  A    between atoms: _514  and  _516
REMARK  207  A    between atoms: _516  and  _517
REMARK  208  A    between atoms: _516  and  _519
REMARK  209  A    between atoms: _519  and  _520
REMARK  210  A    between atoms: _525  and  _526
REMARK  211  A    between atoms: _528  and  _530
REMARK  212  A    between atoms: _530  and  _531
REMARK  213  A    between atoms: _530  and  _533
REMARK  214  A    between atoms: _533  and  _534
REMARK  215  A    between atoms: _539  and  _541
REMARK  216  A    between atoms: _541  and  _542
REMARK  217  A    between atoms: _544  and  _546
REMARK  218  A    between atoms: _546  and  _547
REMARK  219  A    between atoms: _546  and  _549
REMARK  220  A    between atoms: _549  and  _550
REMARK  221  A    between atoms: _553  and  _555
REMARK  222  A    between atoms: _555  and  _556
REMARK  223  A    between atoms: _555  and  _558
REMARK  224  A    between atoms: _561  and  _563
REMARK  225  A    between atoms: _563  and  _564
REMARK  226  A    between atoms: _563  and  _566
REMARK  227  A    between atoms: _566  and  _567
REMARK  228  A    between atoms: _570  and  _572
REMARK  229  A    between atoms: _572  and  _573
REMARK  230  A    between atoms: _572  and  _575
REMARK  231  A    between atoms: _575  and  _576
REMARK  232  A    between atoms: _582  and  _584
REMARK  233  A    between atoms: _584  and  _585
REMARK  234  A    between atoms: _584  and  _587
REMARK  235  A    between atoms: _587  and  _588
REMARK  236  A    between atoms: _588  and  _589
REMARK  237  A    between atoms: _594  and  _596
REMARK  238  A    between atoms: _596  and  _597
REMARK  239  A    between atoms: _600  and  _602
REMARK  240  A    between atoms: _602  and  _603
REMARK  241  A    between atoms: _606  and  _608
REMARK  242  A    between atoms: _608  and  _609
REMARK  243  A    between atoms: _608  and  _611
REMARK  244  A    between atoms: _611  and  _612
REMARK  245  A    between atoms: _615  and  _617
REMARK  246  A    between atoms: _617  and  _618
REMARK  247  A    between atoms: _617  and  _620
REMARK  248  A    between atoms: _620  and  _621
REMARK  249  A    between atoms: _626  and  _627
REMARK  250  A    between atoms: _629  and  _631
REMARK  251  A    between atoms: _631  and  _632
REMARK  252  A    between atoms: _635  and  _637
REMARK  253  A    between atoms: _637  and  _638
REMARK  254  A    between atoms: _642  and  _643
REMARK  255  A    between atoms: _648  and  _650
REMARK  256  A    between atoms: _650  and  _651
REMARK  257  A    between atoms: _650  and  _653
REMARK  258  A    between atoms: _653  and  _654
REMARK  259  A    between atoms: _660  and  _662
REMARK  260  A    between atoms: _662  and  _663
REMARK  261  A    between atoms: _662  and  _665
REMARK  262  A    between atoms: _665  and  _666
REMARK  263  A    between atoms: _669  and  _671
REMARK  264  A    between atoms: _671  and  _672
REMARK  265  A    between atoms: _671  and  _674
REMARK  266  A    between atoms: _674  and  _675
REMARK  267  A    between atoms: _681  and  _683
REMARK  268  A    between atoms: _683  and  _684
REMARK  269  A    between atoms: _683  and  _686
REMARK  270  A    between atoms: _686  and  _687
REMARK  271  A    between atoms: _692  and  _693
REMARK  272  A    between atoms: _695  and  _697
REMARK  273  A    between atoms: _697  and  _698
REMARK  274  A    between atoms: _697  and  _700
REMARK  275  A    between atoms: _700  and  _701
REMARK  276  A    between atoms: _706  and  _707
REMARK  277  A    between atoms: _709  and  _711
REMARK  278  A    between atoms: _711  and  _712
REMARK  279  A    between atoms: _711  and  _714
REMARK  280  A    between atoms: _714  and  _715
REMARK  281  A    between atoms: _715  and  _716
REMARK  282  A    between atoms: _716  and  _717
REMARK  283  A    between atoms: _717  and  _718
REMARK  284  A    between atoms: _722  and  _724
REMARK  285  A    between atoms: _724  and  _725
REMARK  286  A    between atoms: _724  and  _727
REMARK                            x       y       z     vdW  Elec       q    Type
REMARK                         _______ _______ _______ _____ _____    ______ ____
ROOT
ATOM      1  O   HOH     1      23.133  -3.098  24.256  0.00  0.00    +0.000 OA
ENDROOT
TORSDOF 0
REMARK  Name = ../refined-set-2016/2euk/2euk_pocket.pdb
REMARK  286 active torsions:
REMARK  status: ('A' for Active; 'I' for Inactive)
REMARK    1  A    between atoms: _1  and  _5
REMARK    2  A    between atoms: _5  and  _6
REMARK    3  A    between atoms: _5  and  _8
REMARK    4  A    between atoms: _8  and  _9
REMARK    5  A    between atoms: _12  and  _14
REMARK    6  A    between atoms: _14  and  _15
REMARK    7  A    between atoms: _14  and  _17
REMARK    8  A    between atoms: _17  and  _18
REMARK    9  A    between atoms: _23  and  _25
REMARK   10  A    between atoms: _25  and  _26
REMARK   11  A    between atoms: _25  and  _28
REMARK   12  A    between atoms: _28  and  _29
REMARK   13  A    between atoms: _33  and  _34
REMARK   14  A    between atoms: _40  and  _41
REMARK   15  A    between atoms: _46  and  _48
REMARK   16  A    between atoms: _48  and  _49
REMARK   17  A    between atoms: _48  and  _51
REMARK   18  A    between atoms: _51  and  _52
REMARK   19  A    between atoms: _58  and  _60
REMARK   20  A    between atoms: _60  and  _61
REMARK   21  A    between atoms: _60  and  _63
REMARK   22  A    between atoms: _63  and  _64
REMARK   23  A    between atoms: _70  and  _72
REMARK   24  A    between atoms: _72  and  _73
REMARK   25  A    between atoms: _72  and  _75
REMARK   26  A    between atoms: _75  and  _76
REMARK   27  A    between atoms: _79  and  _81
REMARK   28  A    between atoms: _81  and  _82
REMARK   29  A    between atoms: _81  and  _84
REMARK   30  A    between atoms: _86  and  _88
REMARK   31  A    between atoms: _88  and  _89
REMARK   32  A    between atoms: _88  and  _91
REMARK   33  A    between atoms: _91  and  _92
REMARK   34  A    between atoms: _95  and  _97
REMARK   35  A    between atoms: _97  and  _98
REMARK   36  A    between atoms: _97  and  _100
REMARK   37  A    between atoms: _100  and  _101
REMARK   38  A    between atoms: _103  and  _105
REMARK   39  A    between atoms: _105  and  _106
REMARK   40  A    between atoms: _105  and  _108
REMARK   41  A    between atoms: _111  and  _113
REMARK   42  A    between atoms: _113  and  _114
REMARK   43  A    between atoms: _113  and  _116
REMARK   44  A    between atoms: _116  and  _117
REMARK   45  A    between atoms: _123  and  _125
REMARK   46  A    between atoms: _125  and  _126
REMARK   47  A    between atoms: _125  and  _128
REMARK   48  A    between atoms: _128  and  _129
REMARK   49  A    between atoms: _133  and  _134
REMARK   50  A    between atoms: _139  and  _141
REMARK   51  A    between atoms: _141  and  _142
REMARK   52  A    between atoms: _141  and  _144
REMARK   53  A    between atoms: _144  and  _145
REMARK   54  A    between atoms: _148  and  _150
REMARK   55  A    between atoms: _150  and  _151
REMARK   56  A    between atoms: _150  and  _153
REMARK   57  A    between atoms: _153  and  _154
REMARK   58  A    between atoms: _154  and  _155
REMARK   59  A    between atoms: _155  and  _156
REMARK   60  A    between atoms: _156  and  _157
REMARK   61  A    between atoms: _161  and  _163
REMARK   62  A    between atoms: _163  and  _164
REMARK   63  A    between atoms: _167  and  _169
REMARK   64  A    between atoms: _169  and  _170
REMARK   65  A    between atoms: _169  and  _172
REMARK   66  A    between atoms: _172  and  _173
REMARK   67  A    between atoms: _176  and  _178
REMARK   68  A    between atoms: _178  and  _179
REMARK   69  A    between atoms: _178  and  _181
REMARK   70  A    between atoms: _181  and  _182
REMARK   71  A    between atoms: _185  and  _187
REMARK   72  A    between atoms: _187  and  _188
REMARK   73  A    between atoms: _190  and  _192
REMARK   74  A    between atoms: _192  and  _193
REMARK   75  A    between atoms: _192  and  _195
REMARK   76  A    between atoms: _195  and  _196
REMARK   77  A    between atoms: _201  and  _203
REMARK   78  A    between atoms: _203  and  _204
REMARK   79  A    between atoms: _203  and  _206
REMARK   80  A    between atoms: _206  and  _207
REMARK   81  A    between atoms: _210  and  _212
REMARK   82  A    between atoms: _212  and  _213
REMARK   83  A    between atoms: _212  and  _215
REMARK   84  A    between atoms: _215  and  _216
REMARK   85  A    between atoms: _216  and  _217
REMARK   86  A    between atoms: _217  and  _218
REMARK   87  A    between atoms: _218  and  _219
REMARK   88  A    between atoms: _223  and  _225
REMARK   89  A    between atoms: _225  and  _226
REMARK   90  A    between atoms: _225  and  _228
REMARK   91  A    between atoms: _228  and  _229
REMARK   92  A    between atoms: _229  and  _230
REMARK   93  A    between atoms: _230  and  _231
REMARK   94  A    between atoms: _231  and  _232
REMARK   95  A    between atoms: _236  and  _238
REMARK   96  A    between atoms: _238  and  _239
REMARK   97  A    between atoms: _241  and  _243
REMARK   98  A    between atoms: _243  and  _244
REMARK   99  A    between atoms: _243  and  _246
REMARK  100  A    between atoms: _246  and  _247
REMARK  101  A    between atoms: _250  and  _252
REMARK  102  A    between atoms: _252  and  _253
REMARK  103  A    between atoms: _256  and  _258
REMARK  104  A    between atoms: _258  and  _259
REMARK  105  A    between atoms: _258  and  _261
REMARK  106  A    between atoms: _261  and  _262
REMARK  107  A    between atoms: _265  and  _267
REMARK  108  A    between atoms: _267  and  _268
REMARK  109  A    between atoms: _267  and  _270
REMARK  110  A    between atoms: _270  and  _271
REMARK  111  A    between atoms: _271  and  _272
REMARK  112  A    between atoms: _274  and  _276
REMARK  113  A    between atoms: _276  and  _277
REMARK  114  A    between atoms: _276  and  _279
REMARK  115  A    between atoms: _279  and  _280
REMARK  116  A    between atoms: _290  and  _292
REMARK  117  A    between atoms: _292  and  _293
REMARK  118  A    between atoms: _292  and  _295
REMARK  119  A    between atoms: _295  and  _296
REMARK  120  A    between atoms: _299  and  _301
REMARK  121  A    between atoms: _301  and  _302
REMARK  122  A    between atoms: _301  and  _304
REMARK  123  A    between atoms: _304  and  _305
REMARK  124  A    between atoms: _305  and  _306
REMARK  125  A    between atoms: _306  and  _307
REMARK  126  A    between atoms: _307  and  _308
REMARK  127  A    between atoms: _312  and  _314
REMARK  128  A    between atoms: _314  and  _315
REMARK  129  A    between atoms: _314  and  _317
REMARK  130  A    between atoms: _317  and  _318
REMARK  131  A    between atoms: _318  and  _319
REMARK  132  A    between atoms: _319  and  _320
REMARK  133  A    between atoms: _329  and  _331
REMARK  134  A    between atoms: _331  and  _332
REMARK  135  A    between atoms: _334  and  _336
REMARK  136  A    between atoms: _336  and  _337
REMARK  137  A    between atoms: _336  and  _339
REMARK  138  A    between atoms: _339  and  _340
REMARK  139  A    between atoms: _343  and  _345
REMARK  140  A    between atoms: _345  and  _346
REMARK  141  A    between atoms: _345  and  _348
REMARK  142  A    between atoms: _348  and  _349
REMARK  143  A    between atoms: _349  and  _350
REMARK  144  A    between atoms: _350  and  _351
REMARK  145  A    between atoms: _360  and  _362
REMARK  146  A    between atoms: _362  and  _363
REMARK  147  A    between atoms: _362  and  _365
REMARK  148  A    between atoms: _365  and  _366
REMARK  149  A    between atoms: _372  and  _374
REMARK  150  A    between atoms: _374  and  _375
REMARK  151  A    between atoms: _374  and  _377
REMARK  152  A    between atoms: _377  and  _378
REMARK  153  A    between atoms: _381  and  _383
REMARK  154  A    between atoms: _383  and  _384
REMARK  155  A    between atoms: _383  and  _386
REMARK  156  A    between atoms: _386  and  _387
REMARK  157  A    between atoms: _387  and  _388
REMARK  158  A    between atoms: _393  and  _395
REMARK  159  A    between atoms: _395  and  _396
REMARK  160  A    between atoms: _395  and  _398
REMARK  161  A    between atoms: _398  and  _399
REMARK  162  A    between atoms: _405  and  _407
REMARK  163  A    between atoms: _407  and  _408
REMARK  164  A    between atoms: _407  and  _410
REMARK  165  A    between atoms: _410  and  _411
REMARK  166  A    between atoms: _414  and  _416
REMARK  167  A    between atoms: _416  and  _417
REMARK  168  A    between atoms: _416  and  _419
REMARK  169  A    between atoms: _419  and  _420
REMARK  170  A    between atoms: _423  and  _425
REMARK  171  A    between atoms: _425  and  _426
REMARK  172  A    between atoms: _425  and  _428
REMARK  173  A    between atoms: _428  and  _429
REMARK  174  A    between atoms: _429  and  _430
REMARK  175  A    between atoms: _430  and  _431
REMARK  176  A    between atoms: _440  and  _442
REMARK  177  A    between atoms: _442  and  _443
REMARK  178  A    between atoms: _442  and  _445
REMARK  179  A    between atoms: _445  and  _446
REMARK  180  A    between atoms: _451  and  _453
REMARK  181  A    between atoms: _453  and  _454
REMARK  182  A    between atoms: _457  and  _459
REMARK  183  A    between atoms: _459  and  _460
REMARK  184  A    between atoms: _459  and  _462
REMARK  185  A    between atoms: _462  and  _463
REMARK  186  A    between atoms: _466  and  _468
REMARK  187  A    between atoms: _468  and  _469
REMARK  188  A    between atoms: _472  and  _474
REMARK  189  A    between atoms: _474  and  _475
REMARK  190  A    between atoms: _474  and  _477
REMARK  191  A    between atoms: _477  and  _478
REMARK  192  A    between atoms: _483  and  _484
REMARK  193  A    between atoms: _486  and  _488
REMARK  194  A    between atoms: _488  and  _489
REMARK  195  A    between atoms: _492  and  _494
REMARK  196  A    between atoms: _494  and  _495
REMARK  197  A    between atoms: _494  and  _497
REMARK  198  A    between atoms: _497  and  _498
REMARK  199  A    between atoms: _501  and  _503
REMARK  200  A    between atoms: _503  and  _504
REMARK  201  A    between atoms: _503  and  _506
REMARK  202  A    between atoms: _506  and  _507
REMARK  203  A    between atoms: _507  and  _508
REMARK  204  A    between atoms: _508  and  _509
REMARK  205  A    between atoms: _509  and  _510
REMARK  206  A    between atoms: _514  and  _516
REMARK  207  A    between atoms: _516  and  _517
REMARK  208  A    between atoms: _516  and  _519
REMARK  209  A    between atoms: _519  and  _520
REMARK  210  A    between atoms: _525  and  _526
REMARK  211  A    between atoms: _528  and  _530
REMARK  212  A    between atoms: _530  and  _531
REMARK  213  A    between atoms: _530  and  _533
REMARK  214  A    between atoms: _533  and  _534
REMARK  215  A    between atoms: _539  and  _541
REMARK  216  A    between atoms: _541  and  _542
REMARK  217  A    between atoms: _544  and  _546
REMARK  218  A    between atoms: _546  and  _547
REMARK  219  A    between atoms: _546  and  _549
REMARK  220  A    between atoms: _549  and  _550
REMARK  221  A    between atoms: _553  and  _555
REMARK  222  A    between atoms: _555  and  _556
REMARK  223  A    between atoms: _555  and  _558
REMARK  224  A    between atoms: _561  and  _563
REMARK  225  A    between atoms: _563  and  _564
REMARK  226  A    between atoms: _563  and  _566
REMARK  227  A    between atoms: _566  and  _567
REMARK  228  A    between atoms: _570  and  _572
REMARK  229  A    between atoms: _572  and  _573
REMARK  230  A    between atoms: _572  and  _575
REMARK  231  A    between atoms: _575  and  _576
REMARK  232  A    between atoms: _582  and  _584
REMARK  233  A    between atoms: _584  and  _585
REMARK  234  A    between atoms: _584  and  _587
REMARK  235  A    between atoms: _587  and  _588
REMARK  236  A    between atoms: _588  and  _589
REMARK  237  A    between atoms: _594  and  _596
REMARK  238  A    between atoms: _596  and  _597
REMARK  239  A    between atoms: _600  and  _602
REMARK  240  A    between atoms: _602  and  _603
REMARK  241  A    between atoms: _606  and  _608
REMARK  242  A    between atoms: _608  and  _609
REMARK  243  A    between atoms: _608  and  _611
REMARK  244  A    between atoms: _611  and  _612
REMARK  245  A    between atoms: _615  and  _617
REMARK  246  A    between atoms: _617  and  _618
REMARK  247  A    between atoms: _617  and  _620
REMARK  248  A    between atoms: _620  and  _621
REMARK  249  A    between atoms: _626  and  _627
REMARK  250  A    between atoms: _629  and  _631
REMARK  251  A    between atoms: _631  and  _632
REMARK  252  A    between atoms: _635  and  _637
REMARK  253  A    between atoms: _637  and  _638
REMARK  254  A    between atoms: _642  and  _643
REMARK  255  A    between atoms: _648  and  _650
REMARK  256  A    between atoms: _650  and  _651
REMARK  257  A    between atoms: _650  and  _653
REMARK  258  A    between atoms: _653  and  _654
REMARK  259  A    between atoms: _660  and  _662
REMARK  260  A    between atoms: _662  and  _663
REMARK  261  A    between atoms: _662  and  _665
REMARK  262  A    between atoms: _665  and  _666
REMARK  263  A    between atoms: _669  and  _671
REMARK  264  A    between atoms: _671  and  _672
REMARK  265  A    between atoms: _671  and  _674
REMARK  266  A    between atoms: _674  and  _675
REMARK  267  A    between atoms: _681  and  _683
REMARK  268  A    between atoms: _683  and  _684
REMARK  269  A    between atoms: _683  and  _686
REMARK  270  A    between atoms: _686  and  _687
REMARK  271  A    between atoms: _692  and  _693
REMARK  272  A    between atoms: _695  and  _697
REMARK  273  A    between atoms: _697  and  _698
REMARK  274  A    between atoms: _697  and  _700
REMARK  275  A    between atoms: _700  and  _701
REMARK  276  A    between atoms: _706  and  _707
REMARK  277  A    between atoms: _709  and  _711
REMARK  278  A    between atoms: _711  and  _712
REMARK  279  A    between atoms: _711  and  _714
REMARK  280  A    between atoms: _714  and  _715
REMARK  281  A    between atoms: _715  and  _716
REMARK  282  A    between atoms: _716  and  _717
REMARK  283  A    between atoms: _717  and  _718
REMARK  284  A    between atoms: _722  and  _724
REMARK  285  A    between atoms: _724  and  _725
REMARK  286  A    between atoms: _724  and  _727
REMARK                            x       y       z     vdW  Elec       q    Type
REMARK                         _______ _______ _______ _____ _____    ______ ____
ROOT
ATOM      1  O   HOH     1      21.788  -0.826  24.889  0.00  0.00    +0.000 OA
ENDROOT
TORSDOF 0
REMARK  Name = ../refined-set-2016/2euk/2euk_pocket.pdb
REMARK  286 active torsions:
REMARK  status: ('A' for Active; 'I' for Inactive)
REMARK    1  A    between atoms: _1  and  _5
REMARK    2  A    between atoms: _5  and  _6
REMARK    3  A    between atoms: _5  and  _8
REMARK    4  A    between atoms: _8  and  _9
REMARK    5  A    between atoms: _12  and  _14
REMARK    6  A    between atoms: _14  and  _15
REMARK    7  A    between atoms: _14  and  _17
REMARK    8  A    between atoms: _17  and  _18
REMARK    9  A    between atoms: _23  and  _25
REMARK   10  A    between atoms: _25  and  _26
REMARK   11  A    between atoms: _25  and  _28
REMARK   12  A    between atoms: _28  and  _29
REMARK   13  A    between atoms: _33  and  _34
REMARK   14  A    between atoms: _40  and  _41
REMARK   15  A    between atoms: _46  and  _48
REMARK   16  A    between atoms: _48  and  _49
REMARK   17  A    between atoms: _48  and  _51
REMARK   18  A    between atoms: _51  and  _52
REMARK   19  A    between atoms: _58  and  _60
REMARK   20  A    between atoms: _60  and  _61
REMARK   21  A    between atoms: _60  and  _63
REMARK   22  A    between atoms: _63  and  _64
REMARK   23  A    between atoms: _70  and  _72
REMARK   24  A    between atoms: _72  and  _73
REMARK   25  A    between atoms: _72  and  _75
REMARK   26  A    between atoms: _75  and  _76
REMARK   27  A    between atoms: _79  and  _81
REMARK   28  A    between atoms: _81  and  _82
REMARK   29  A    between atoms: _81  and  _84
REMARK   30  A    between atoms: _86  and  _88
REMARK   31  A    between atoms: _88  and  _89
REMARK   32  A    between atoms: _88  and  _91
REMARK   33  A    between atoms: _91  and  _92
REMARK   34  A    between atoms: _95  and  _97
REMARK   35  A    between atoms: _97  and  _98
REMARK   36  A    between atoms: _97  and  _100
REMARK   37  A    between atoms: _100  and  _101
REMARK   38  A    between atoms: _103  and  _105
REMARK   39  A    between atoms: _105  and  _106
REMARK   40  A    between atoms: _105  and  _108
REMARK   41  A    between atoms: _111  and  _113
REMARK   42  A    between atoms: _113  and  _114
REMARK   43  A    between atoms: _113  and  _116
REMARK   44  A    between atoms: _116  and  _117
REMARK   45  A    between atoms: _123  and  _125
REMARK   46  A    between atoms: _125  and  _126
REMARK   47  A    between atoms: _125  and  _128
REMARK   48  A    between atoms: _128  and  _129
REMARK   49  A    between atoms: _133  and  _134
REMARK   50  A    between atoms: _139  and  _141
REMARK   51  A    between atoms: _141  and  _142
REMARK   52  A    between atoms: _141  and  _144
REMARK   53  A    between atoms: _144  and  _145
REMARK   54  A    between atoms: _148  and  _150
REMARK   55  A    between atoms: _150  and  _151
REMARK   56  A    between atoms: _150  and  _153
REMARK   57  A    between atoms: _153  and  _154
REMARK   58  A    between atoms: _154  and  _155
REMARK   59  A    between atoms: _155  and  _156
REMARK   60  A    between atoms: _156  and  _157
REMARK   61  A    between atoms: _161  and  _163
REMARK   62  A    between atoms: _163  and  _164
REMARK   63  A    between atoms: _167  and  _169
REMARK   64  A    between atoms: _169  and  _170
REMARK   65  A    between atoms: _169  and  _172
REMARK   66  A    between atoms: _172  and  _173
REMARK   67  A    between atoms: _176  and  _178
REMARK   68  A    between atoms: _178  and  _179
REMARK   69  A    between atoms: _178  and  _181
REMARK   70  A    between atoms: _181  and  _182
REMARK   71  A    between atoms: _185  and  _187
REMARK   72  A    between atoms: _187  and  _188
REMARK   73  A    between atoms: _190  and  _192
REMARK   74  A    between atoms: _192  and  _193
REMARK   75  A    between atoms: _192  and  _195
REMARK   76  A    between atoms: _195  and  _196
REMARK   77  A    between atoms: _201  and  _203
REMARK   78  A    between atoms: _203  and  _204
REMARK   79  A    between atoms: _203  and  _206
REMARK   80  A    between atoms: _206  and  _207
REMARK   81  A    between atoms: _210  and  _212
REMARK   82  A    between atoms: _212  and  _213
REMARK   83  A    between atoms: _212  and  _215
REMARK   84  A    between atoms: _215  and  _216
REMARK   85  A    between atoms: _216  and  _217
REMARK   86  A    between atoms: _217  and  _218
REMARK   87  A    between atoms: _218  and  _219
REMARK   88  A    between atoms: _223  and  _225
REMARK   89  A    between atoms: _225  and  _226
REMARK   90  A    between atoms: _225  and  _228
REMARK   91  A    between atoms: _228  and  _229
REMARK   92  A    between atoms: _229  and  _230
REMARK   93  A    between atoms: _230  and  _231
REMARK   94  A    between atoms: _231  and  _232
REMARK   95  A    between atoms: _236  and  _238
REMARK   96  A    between atoms: _238  and  _239
REMARK   97  A    between atoms: _241  and  _243
REMARK   98  A    between atoms: _243  and  _244
REMARK   99  A    between atoms: _243  and  _246
REMARK  100  A    between atoms: _246  and  _247
REMARK  101  A    between atoms: _250  and  _252
REMARK  102  A    between atoms: _252  and  _253
REMARK  103  A    between atoms: _256  and  _258
REMARK  104  A    between atoms: _258  and  _259
REMARK  105  A    between atoms: _258  and  _261
REMARK  106  A    between atoms: _261  and  _262
REMARK  107  A    between atoms: _265  and  _267
REMARK  108  A    between atoms: _267  and  _268
REMARK  109  A    between atoms: _267  and  _270
REMARK  110  A    between atoms: _270  and  _271
REMARK  111  A    between atoms: _271  and  _272
REMARK  112  A    between atoms: _274  and  _276
REMARK  113  A    between atoms: _276  and  _277
REMARK  114  A    between atoms: _276  and  _279
REMARK  115  A    between atoms: _279  and  _280
REMARK  116  A    between atoms: _290  and  _292
REMARK  117  A    between atoms: _292  and  _293
REMARK  118  A    between atoms: _292  and  _295
REMARK  119  A    between atoms: _295  and  _296
REMARK  120  A    between atoms: _299  and  _301
REMARK  121  A    between atoms: _301  and  _302
REMARK  122  A    between atoms: _301  and  _304
REMARK  123  A    between atoms: _304  and  _305
REMARK  124  A    between atoms: _305  and  _306
REMARK  125  A    between atoms: _306  and  _307
REMARK  126  A    between atoms: _307  and  _308
REMARK  127  A    between atoms: _312  and  _314
REMARK  128  A    between atoms: _314  and  _315
REMARK  129  A    between atoms: _314  and  _317
REMARK  130  A    between atoms: _317  and  _318
REMARK  131  A    between atoms: _318  and  _319
REMARK  132  A    between atoms: _319  and  _320
REMARK  133  A    between atoms: _329  and  _331
REMARK  134  A    between atoms: _331  and  _332
REMARK  135  A    between atoms: _334  and  _336
REMARK  136  A    between atoms: _336  and  _337
REMARK  137  A    between atoms: _336  and  _339
REMARK  138  A    between atoms: _339  and  _340
REMARK  139  A    between atoms: _343  and  _345
REMARK  140  A    between atoms: _345  and  _346
REMARK  141  A    between atoms: _345  and  _348
REMARK  142  A    between atoms: _348  and  _349
REMARK  143  A    between atoms: _349  and  _350
REMARK  144  A    between atoms: _350  and  _351
REMARK  145  A    between atoms: _360  and  _362
REMARK  146  A    between atoms: _362  and  _363
REMARK  147  A    between atoms: _362  and  _365
REMARK  148  A    between atoms: _365  and  _366
REMARK  149  A    between atoms: _372  and  _374
REMARK  150  A    between atoms: _374  and  _375
REMARK  151  A    between atoms: _374  and  _377
REMARK  152  A    between atoms: _377  and  _378
REMARK  153  A    between atoms: _381  and  _383
REMARK  154  A    between atoms: _383  and  _384
REMARK  155  A    between atoms: _383  and  _386
REMARK  156  A    between atoms: _386  and  _387
REMARK  157  A    between atoms: _387  and  _388
REMARK  158  A    between atoms: _393  and  _395
REMARK  159  A    between atoms: _395  and  _396
REMARK  160  A    between atoms: _395  and  _398
REMARK  161  A    between atoms: _398  and  _399
REMARK  162  A    between atoms: _405  and  _407
REMARK  163  A    between atoms: _407  and  _408
REMARK  164  A    between atoms: _407  and  _410
REMARK  165  A    between atoms: _410  and  _411
REMARK  166  A    between atoms: _414  and  _416
REMARK  167  A    between atoms: _416  and  _417
REMARK  168  A    between atoms: _416  and  _419
REMARK  169  A    between atoms: _419  and  _420
REMARK  170  A    between atoms: _423  and  _425
REMARK  171  A    between atoms: _425  and  _426
REMARK  172  A    between atoms: _425  and  _428
REMARK  173  A    between atoms: _428  and  _429
REMARK  174  A    between atoms: _429  and  _430
REMARK  175  A    between atoms: _430  and  _431
REMARK  176  A    between atoms: _440  and  _442
REMARK  177  A    between atoms: _442  and  _443
REMARK  178  A    between atoms: _442  and  _445
REMARK  179  A    between atoms: _445  and  _446
REMARK  180  A    between atoms: _451  and  _453
REMARK  181  A    between atoms: _453  and  _454
REMARK  182  A    between atoms: _457  and  _459
REMARK  183  A    between atoms: _459  and  _460
REMARK  184  A    between atoms: _459  and  _462
REMARK  185  A    between atoms: _462  and  _463
REMARK  186  A    between atoms: _466  and  _468
REMARK  187  A    between atoms: _468  and  _469
REMARK  188  A    between atoms: _472  and  _474
REMARK  189  A    between atoms: _474  and  _475
REMARK  190  A    between atoms: _474  and  _477
REMARK  191  A    between atoms: _477  and  _478
REMARK  192  A    between atoms: _483  and  _484
REMARK  193  A    between atoms: _486  and  _488
REMARK  194  A    between atoms: _488  and  _489
REMARK  195  A    between atoms: _492  and  _494
REMARK  196  A    between atoms: _494  and  _495
REMARK  197  A    between atoms: _494  and  _497
REMARK  198  A    between atoms: _497  and  _498
REMARK  199  A    between atoms: _501  and  _503
REMARK  200  A    between atoms: _503  and  _504
REMARK  201  A    between atoms: _503  and  _506
REMARK  202  A    between atoms: _506  and  _507
REMARK  203  A    between atoms: _507  and  _508
REMARK  204  A    between atoms: _508  and  _509
REMARK  205  A    between atoms: _509  and  _510
REMARK  206  A    between atoms: _514  and  _516
REMARK  207  A    between atoms: _516  and  _517
REMARK  208  A    between atoms: _516  and  _519
REMARK  209  A    between atoms: _519  and  _520
REMARK  210  A    between atoms: _525  and  _526
REMARK  211  A    between atoms: _528  and  _530
REMARK  212  A    between atoms: _530  and  _531
REMARK  213  A    between atoms: _530  and  _533
REMARK  214  A    between atoms: _533  and  _534
REMARK  215  A    between atoms: _539  and  _541
REMARK  216  A    between atoms: _541  and  _542
REMARK  217  A    between atoms: _544  and  _546
REMARK  218  A    between atoms: _546  and  _547
REMARK  219  A    between atoms: _546  and  _549
REMARK  220  A    between atoms: _549  and  _550
REMARK  221  A    between atoms: _553  and  _555
REMARK  222  A    between atoms: _555  and  _556
REMARK  223  A    between atoms: _555  and  _558
REMARK  224  A    between atoms: _561  and  _563
REMARK  225  A    between atoms: _563  and  _564
REMARK  226  A    between atoms: _563  and  _566
REMARK  227  A    between atoms: _566  and  _567
REMARK  228  A    between atoms: _570  and  _572
REMARK  229  A    between atoms: _572  and  _573
REMARK  230  A    between atoms: _572  and  _575
REMARK  231  A    between atoms: _575  and  _576
REMARK  232  A    between atoms: _582  and  _584
REMARK  233  A    between atoms: _584  and  _585
REMARK  234  A    between atoms: _584  and  _587
REMARK  235  A    between atoms: _587  and  _588
REMARK  236  A    between atoms: _588  and  _589
REMARK  237  A    between atoms: _594  and  _596
REMARK  238  A    between atoms: _596  and  _597
REMARK  239  A    between atoms: _600  and  _602
REMARK  240  A    between atoms: _602  and  _603
REMARK  241  A    between atoms: _606  and  _608
REMARK  242  A    between atoms: _608  and  _609
REMARK  243  A    between atoms: _608  and  _611
REMARK  244  A    between atoms: _611  and  _612
REMARK  245  A    between atoms: _615  and  _617
REMARK  246  A    between atoms: _617  and  _618
REMARK  247  A    between atoms: _617  and  _620
REMARK  248  A    between atoms: _620  and  _621
REMARK  249  A    between atoms: _626  and  _627
REMARK  250  A    between atoms: _629  and  _631
REMARK  251  A    between atoms: _631  and  _632
REMARK  252  A    between atoms: _635  and  _637
REMARK  253  A    between atoms: _637  and  _638
REMARK  254  A    between atoms: _642  and  _643
REMARK  255  A    between atoms: _648  and  _650
REMARK  256  A    between atoms: _650  and  _651
REMARK  257  A    between atoms: _650  and  _653
REMARK  258  A    between atoms: _653  and  _654
REMARK  259  A    between atoms: _660  and  _662
REMARK  260  A    between atoms: _662  and  _663
REMARK  261  A    between atoms: _662  and  _665
REMARK  262  A    between atoms: _665  and  _666
REMARK  263  A    between atoms: _669  and  _671
REMARK  264  A    between atoms: _671  and  _672
REMARK  265  A    between atoms: _671  and  _674
REMARK  266  A    between atoms: _674  and  _675
REMARK  267  A    between atoms: _681  and  _683
REMARK  268  A    between atoms: _683  and  _684
REMARK  269  A    between atoms: _683  and  _686
REMARK  270  A    between atoms: _686  and  _687
REMARK  271  A    between atoms: _692  and  _693
REMARK  272  A    between atoms: _695  and  _697
REMARK  273  A    between atoms: _697  and  _698
REMARK  274  A    between atoms: _697  and  _700
REMARK  275  A    between atoms: _700  and  _701
REMARK  276  A    between atoms: _706  and  _707
REMARK  277  A    between atoms: _709  and  _711
REMARK  278  A    between atoms: _711  and  _712
REMARK  279  A    between atoms: _711  and  _714
REMARK  280  A    between atoms: _714  and  _715
REMARK  281  A    between atoms: _715  and  _716
REMARK  282  A    between atoms: _716  and  _717
REMARK  283  A    between atoms: _717  and  _718
REMARK  284  A    between atoms: _722  and  _724
REMARK  285  A    between atoms: _724  and  _725
REMARK  286  A    between atoms: _724  and  _727
REMARK                            x       y       z     vdW  Elec       q    Type
REMARK                         _______ _______ _______ _____ _____    ______ ____
ROOT
ATOM      1  O   HOH     1      20.429   2.910  24.569  0.00  0.00    +0.000 OA
ENDROOT
TORSDOF 0
