REMARK  Name = ../refined-set-2016/1azm/1azm_pocket.pdb
REMARK  150 active torsions:
REMARK  status: ('A' for Active; 'I' for Inactive)
REMARK    1  A    between atoms: _1  and  _3
REMARK    2  A    between atoms: _3  and  _4
REMARK    3  A    between atoms: _3  and  _6
REMARK    4  A    between atoms: _6  and  _7
REMARK    5  A    between atoms: _17  and  _19
REMARK    6  A    between atoms: _19  and  _20
REMARK    7  A    between atoms: _19  and  _22
REMARK    8  A    between atoms: _22  and  _23
REMARK    9  A    between atoms: _28  and  _29
REMARK   10  A    between atoms: _31  and  _33
REMARK   11  A    between atoms: _33  and  _34
REMARK   12  A    between atoms: _33  and  _36
REMARK   13  A    between atoms: _36  and  _37
REMARK   14  A    between atoms: _40  and  _41
REMARK   15  A    between atoms: _46  and  _48
REMARK   16  A    between atoms: _48  and  _49
REMARK   17  A    between atoms: _48  and  _51
REMARK   18  A    between atoms: _51  and  _52
REMARK   19  A    between atoms: _57  and  _59
REMARK   20  A    between atoms: _59  and  _60
REMARK   21  A    between atoms: _59  and  _62
REMARK   22  A    between atoms: _62  and  _63
REMARK   23  A    between atoms: _65  and  _67
REMARK   24  A    between atoms: _67  and  _68
REMARK   25  A    between atoms: _67  and  _70
REMARK   26  A    between atoms: _70  and  _71
REMARK   27  A    between atoms: _76  and  _78
REMARK   28  A    between atoms: _78  and  _79
REMARK   29  A    between atoms: _78  and  _81
REMARK   30  A    between atoms: _81  and  _82
REMARK   31  A    between atoms: _88  and  _90
REMARK   32  A    between atoms: _90  and  _91
REMARK   33  A    between atoms: _90  and  _93
REMARK   34  A    between atoms: _93  and  _94
REMARK   35  A    between atoms: _94  and  _95
REMARK   36  A    between atoms: _100  and  _102
REMARK   37  A    between atoms: _102  and  _103
REMARK   38  A    between atoms: _102  and  _105
REMARK   39  A    between atoms: _105  and  _106
REMARK   40  A    between atoms: _112  and  _114
REMARK   41  A    between atoms: _125  and  _128
REMARK   42  A    between atoms: _128  and  _129
REMARK   43  A    between atoms: _137  and  _138
REMARK   44  A    between atoms: _146  and  _148
REMARK   45  A    between atoms: _148  and  _149
REMARK   46  A    between atoms: _148  and  _151
REMARK   47  A    between atoms: _151  and  _152
REMARK   48  A    between atoms: _152  and  _153
REMARK   49  A    between atoms: _156  and  _158
REMARK   50  A    between atoms: _158  and  _159
REMARK   51  A    between atoms: _158  and  _161
REMARK   52  A    between atoms: _161  and  _162
REMARK   53  A    between atoms: _167  and  _169
REMARK   54  A    between atoms: _169  and  _170
REMARK   55  A    between atoms: _169  and  _172
REMARK   56  A    between atoms: _172  and  _173
REMARK   57  A    between atoms: _173  and  _174
REMARK   58  A    between atoms: _177  and  _179
REMARK   59  A    between atoms: _179  and  _180
REMARK   60  A    between atoms: _179  and  _182
REMARK   61  A    between atoms: _182  and  _183
REMARK   62  A    between atoms: _186  and  _188
REMARK   63  A    between atoms: _188  and  _189
REMARK   64  A    between atoms: _188  and  _191
REMARK   65  A    between atoms: _191  and  _192
REMARK   66  A    between atoms: _193  and  ZN_430
REMARK   67  A    between atoms: _197  and  _199
REMARK   68  A    between atoms: _199  and  _200
REMARK   69  A    between atoms: _199  and  _202
REMARK   70  A    between atoms: _205  and  _207
REMARK   71  A    between atoms: _207  and  _208
REMARK   72  A    between atoms: _211  and  _213
REMARK   73  A    between atoms: _213  and  _214
REMARK   74  A    between atoms: _213  and  _216
REMARK   75  A    between atoms: _216  and  _217
REMARK   76  A    between atoms: _222  and  _224
REMARK   77  A    between atoms: _224  and  _225
REMARK   78  A    between atoms: _224  and  _227
REMARK   79  A    between atoms: _227  and  _228
REMARK   80  A    between atoms: _238  and  _240
REMARK   81  A    between atoms: _240  and  _241
REMARK   82  A    between atoms: _240  and  _243
REMARK   83  A    between atoms: _243  and  _244
REMARK   84  A    between atoms: _247  and  _249
REMARK   85  A    between atoms: _249  and  _250
REMARK   86  A    between atoms: _253  and  _255
REMARK   87  A    between atoms: _255  and  _256
REMARK   88  A    between atoms: _259  and  _261
REMARK   89  A    between atoms: _261  and  _262
REMARK   90  A    between atoms: _261  and  _264
REMARK   91  A    between atoms: _264  and  _265
REMARK   92  A    between atoms: _268  and  _270
REMARK   93  A    between atoms: _270  and  _271
REMARK   94  A    between atoms: _274  and  _276
REMARK   95  A    between atoms: _276  and  _277
REMARK   96  A    between atoms: _276  and  _279
REMARK   97  A    between atoms: _282  and  _284
REMARK   98  A    between atoms: _284  and  _285
REMARK   99  A    between atoms: _284  and  _287
REMARK  100  A    between atoms: _287  and  _288
REMARK  101  A    between atoms: _291  and  _293
REMARK  102  A    between atoms: _293  and  _294
REMARK  103  A    between atoms: _296  and  _298
REMARK  104  A    between atoms: _298  and  _299
REMARK  105  A    between atoms: _298  and  _301
REMARK  106  A    between atoms: _301  and  _302
REMARK  107  A    between atoms: _304  and  _306
REMARK  108  A    between atoms: _306  and  _307
REMARK  109  A    between atoms: _306  and  _309
REMARK  110  A    between atoms: _309  and  _310
REMARK  111  A    between atoms: _313  and  _315
REMARK  112  A    between atoms: _315  and  _316
REMARK  113  A    between atoms: _315  and  _318
REMARK  114  A    between atoms: _318  and  _319
REMARK  115  A    between atoms: _322  and  _324
REMARK  116  A    between atoms: _324  and  _325
REMARK  117  A    between atoms: _324  and  _327
REMARK  118  A    between atoms: _327  and  _328
REMARK  119  A    between atoms: _334  and  _335
REMARK  120  A    between atoms: _341  and  _342
REMARK  121  A    between atoms: _347  and  _349
REMARK  122  A    between atoms: _349  and  _350
REMARK  123  A    between atoms: _349  and  _352
REMARK  124  A    between atoms: _352  and  _353
REMARK  125  A    between atoms: _356  and  _358
REMARK  126  A    between atoms: _358  and  _359
REMARK  127  A    between atoms: _358  and  _361
REMARK  128  A    between atoms: _361  and  _362
REMARK  129  A    between atoms: _367  and  _368
REMARK  130  A    between atoms: _370  and  _372
REMARK  131  A    between atoms: _372  and  _373
REMARK  132  A    between atoms: _372  and  _375
REMARK  133  A    between atoms: _375  and  _376
REMARK  134  A    between atoms: _378  and  _380
REMARK  135  A    between atoms: _380  and  _381
REMARK  136  A    between atoms: _380  and  _383
REMARK  137  A    between atoms: _386  and  _388
REMARK  138  A    between atoms: _388  and  _389
REMARK  139  A    between atoms: _388  and  _391
REMARK  140  A    between atoms: _391  and  _392
REMARK  141  A    between atoms: _402  and  _404
REMARK  142  A    between atoms: _404  and  _405
REMARK  143  A    between atoms: _404  and  _407
REMARK  144  A    between atoms: _407  and  _408
REMARK  145  A    between atoms: _413  and  _415
REMARK  146  A    between atoms: _415  and  _416
REMARK  147  A    between atoms: _415  and  _418
REMARK  148  A    between atoms: _418  and  _419
REMARK  149  A    between atoms: _419  and  _420
REMARK  150  A    between atoms: _420  and  _421
REMARK                            x       y       z     vdW  Elec       q    Type
REMARK                         _______ _______ _______ _____ _____    ______ ____
ROOT
ATOM      1  CG  TRP A   1      41.031  23.919 -25.371  0.00  0.00    -0.002 A 
ATOM      2  CD2 TRP A   1      41.155  23.071 -24.215  0.00  0.00    +0.013 A 
ATOM      3  CE3 TRP A   1      41.665  23.243 -22.937  0.00  0.00    +0.001 A 
ATOM      4  CZ3 TRP A   1      41.618  22.200 -22.028  0.00  0.00    +0.000 A 
ATOM      5  CH2 TRP A   1      41.066  20.975 -22.387  0.00  0.00    +0.001 A 
ATOM      6  CZ2 TRP A   1      40.508  20.760 -23.657  0.00  0.00    +0.017 A 
ATOM      7  CE2 TRP A   1      40.593  21.826 -24.556  0.00  0.00    +0.056 A 
ATOM      8  NE1 TRP A   1      40.152  21.916 -25.854  0.00  0.00    -0.352 N 
ATOM      9  HE1 TRP A   1      39.674  21.160 -26.385  0.00  0.00    +0.166 HD
ATOM     10  CD1 TRP A   1      40.444  23.155 -26.330  0.00  0.00    +0.068 A 
ENDROOT
BRANCH   1  11
ATOM     11  CB  TRP A   1      41.472  25.337 -25.516  0.00  0.00    +0.053 C 
BRANCH  11  12
ATOM     12  CA  TRP A   1      42.930  25.476 -25.974  0.00  0.00    +0.137 C 
BRANCH  12  13
ATOM     13  N   TRP A   1      43.128  24.900 -27.291  0.00  0.00    -0.239 NA
ATOM     14  H   TRP A   1      43.410  23.899 -27.291  0.00  0.00    +0.142 HD
ENDBRANCH  12  13
BRANCH  12  15
ATOM     15  C   TRP A   1      43.910  24.691 -25.063  0.00  0.00    +0.224 C 
ATOM     16  O   TRP A   1      44.316  23.557 -25.427  0.00  0.00    -0.287 OA
ENDBRANCH  12  15
ENDBRANCH  11  12
ENDBRANCH   1  11
TORSDOF 4
REMARK  Name = ../refined-set-2016/1azm/1azm_pocket.pdb
REMARK  150 active torsions:
REMARK  status: ('A' for Active; 'I' for Inactive)
REMARK    1  A    between atoms: _1  and  _3
REMARK    2  A    between atoms: _3  and  _4
REMARK    3  A    between atoms: _3  and  _6
REMARK    4  A    between atoms: _6  and  _7
REMARK    5  A    between atoms: _17  and  _19
REMARK    6  A    between atoms: _19  and  _20
REMARK    7  A    between atoms: _19  and  _22
REMARK    8  A    between atoms: _22  and  _23
REMARK    9  A    between atoms: _28  and  _29
REMARK   10  A    between atoms: _31  and  _33
REMARK   11  A    between atoms: _33  and  _34
REMARK   12  A    between atoms: _33  and  _36
REMARK   13  A    between atoms: _36  and  _37
REMARK   14  A    between atoms: _40  and  _41
REMARK   15  A    between atoms: _46  and  _48
REMARK   16  A    between atoms: _48  and  _49
REMARK   17  A    between atoms: _48  and  _51
REMARK   18  A    between atoms: _51  and  _52
REMARK   19  A    between atoms: _57  and  _59
REMARK   20  A    between atoms: _59  and  _60
REMARK   21  A    between atoms: _59  and  _62
REMARK   22  A    between atoms: _62  and  _63
REMARK   23  A    between atoms: _65  and  _67
REMARK   24  A    between atoms: _67  and  _68
REMARK   25  A    between atoms: _67  and  _70
REMARK   26  A    between atoms: _70  and  _71
REMARK   27  A    between atoms: _76  and  _78
REMARK   28  A    between atoms: _78  and  _79
REMARK   29  A    between atoms: _78  and  _81
REMARK   30  A    between atoms: _81  and  _82
REMARK   31  A    between atoms: _88  and  _90
REMARK   32  A    between atoms: _90  and  _91
REMARK   33  A    between atoms: _90  and  _93
REMARK   34  A    between atoms: _93  and  _94
REMARK   35  A    between atoms: _94  and  _95
REMARK   36  A    between atoms: _100  and  _102
REMARK   37  A    between atoms: _102  and  _103
REMARK   38  A    between atoms: _102  and  _105
REMARK   39  A    between atoms: _105  and  _106
REMARK   40  A    between atoms: _112  and  _114
REMARK   41  A    between atoms: _125  and  _128
REMARK   42  A    between atoms: _128  and  _129
REMARK   43  A    between atoms: _137  and  _138
REMARK   44  A    between atoms: _146  and  _148
REMARK   45  A    between atoms: _148  and  _149
REMARK   46  A    between atoms: _148  and  _151
REMARK   47  A    between atoms: _151  and  _152
REMARK   48  A    between atoms: _152  and  _153
REMARK   49  A    between atoms: _156  and  _158
REMARK   50  A    between atoms: _158  and  _159
REMARK   51  A    between atoms: _158  and  _161
REMARK   52  A    between atoms: _161  and  _162
REMARK   53  A    between atoms: _167  and  _169
REMARK   54  A    between atoms: _169  and  _170
REMARK   55  A    between atoms: _169  and  _172
REMARK   56  A    between atoms: _172  and  _173
REMARK   57  A    between atoms: _173  and  _174
REMARK   58  A    between atoms: _177  and  _179
REMARK   59  A    between atoms: _179  and  _180
REMARK   60  A    between atoms: _179  and  _182
REMARK   61  A    between atoms: _182  and  _183
REMARK   62  A    between atoms: _186  and  _188
REMARK   63  A    between atoms: _188  and  _189
REMARK   64  A    between atoms: _188  and  _191
REMARK   65  A    between atoms: _191  and  _192
REMARK   66  A    between atoms: _193  and  ZN_430
REMARK   67  A    between atoms: _197  and  _199
REMARK   68  A    between atoms: _199  and  _200
REMARK   69  A    between atoms: _199  and  _202
REMARK   70  A    between atoms: _205  and  _207
REMARK   71  A    between atoms: _207  and  _208
REMARK   72  A    between atoms: _211  and  _213
REMARK   73  A    between atoms: _213  and  _214
REMARK   74  A    between atoms: _213  and  _216
REMARK   75  A    between atoms: _216  and  _217
REMARK   76  A    between atoms: _222  and  _224
REMARK   77  A    between atoms: _224  and  _225
REMARK   78  A    between atoms: _224  and  _227
REMARK   79  A    between atoms: _227  and  _228
REMARK   80  A    between atoms: _238  and  _240
REMARK   81  A    between atoms: _240  and  _241
REMARK   82  A    between atoms: _240  and  _243
REMARK   83  A    between atoms: _243  and  _244
REMARK   84  A    between atoms: _247  and  _249
REMARK   85  A    between atoms: _249  and  _250
REMARK   86  A    between atoms: _253  and  _255
REMARK   87  A    between atoms: _255  and  _256
REMARK   88  A    between atoms: _259  and  _261
REMARK   89  A    between atoms: _261  and  _262
REMARK   90  A    between atoms: _261  and  _264
REMARK   91  A    between atoms: _264  and  _265
REMARK   92  A    between atoms: _268  and  _270
REMARK   93  A    between atoms: _270  and  _271
REMARK   94  A    between atoms: _274  and  _276
REMARK   95  A    between atoms: _276  and  _277
REMARK   96  A    between atoms: _276  and  _279
REMARK   97  A    between atoms: _282  and  _284
REMARK   98  A    between atoms: _284  and  _285
REMARK   99  A    between atoms: _284  and  _287
REMARK  100  A    between atoms: _287  and  _288
REMARK  101  A    between atoms: _291  and  _293
REMARK  102  A    between atoms: _293  and  _294
REMARK  103  A    between atoms: _296  and  _298
REMARK  104  A    between atoms: _298  and  _299
REMARK  105  A    between atoms: _298  and  _301
REMARK  106  A    between atoms: _301  and  _302
REMARK  107  A    between atoms: _304  and  _306
REMARK  108  A    between atoms: _306  and  _307
REMARK  109  A    between atoms: _306  and  _309
REMARK  110  A    between atoms: _309  and  _310
REMARK  111  A    between atoms: _313  and  _315
REMARK  112  A    between atoms: _315  and  _316
REMARK  113  A    between atoms: _315  and  _318
REMARK  114  A    between atoms: _318  and  _319
REMARK  115  A    between atoms: _322  and  _324
REMARK  116  A    between atoms: _324  and  _325
REMARK  117  A    between atoms: _324  and  _327
REMARK  118  A    between atoms: _327  and  _328
REMARK  119  A    between atoms: _334  and  _335
REMARK  120  A    between atoms: _341  and  _342
REMARK  121  A    between atoms: _347  and  _349
REMARK  122  A    between atoms: _349  and  _350
REMARK  123  A    between atoms: _349  and  _352
REMARK  124  A    between atoms: _352  and  _353
REMARK  125  A    between atoms: _356  and  _358
REMARK  126  A    between atoms: _358  and  _359
REMARK  127  A    between atoms: _358  and  _361
REMARK  128  A    between atoms: _361  and  _362
REMARK  129  A    between atoms: _367  and  _368
REMARK  130  A    between atoms: _370  and  _372
REMARK  131  A    between atoms: _372  and  _373
REMARK  132  A    between atoms: _372  and  _375
REMARK  133  A    between atoms: _375  and  _376
REMARK  134  A    between atoms: _378  and  _380
REMARK  135  A    between atoms: _380  and  _381
REMARK  136  A    between atoms: _380  and  _383
REMARK  137  A    between atoms: _386  and  _388
REMARK  138  A    between atoms: _388  and  _389
REMARK  139  A    between atoms: _388  and  _391
REMARK  140  A    between atoms: _391  and  _392
REMARK  141  A    between atoms: _402  and  _404
REMARK  142  A    between atoms: _404  and  _405
REMARK  143  A    between atoms: _404  and  _407
REMARK  144  A    between atoms: _407  and  _408
REMARK  145  A    between atoms: _413  and  _415
REMARK  146  A    between atoms: _415  and  _416
REMARK  147  A    between atoms: _415  and  _418
REMARK  148  A    between atoms: _418  and  _419
REMARK  149  A    between atoms: _419  and  _420
REMARK  150  A    between atoms: _420  and  _421
REMARK                            x       y       z     vdW  Elec       q    Type
REMARK                         _______ _______ _______ _____ _____    ______ ____
ROOT
ATOM      1  CG  TYR A   1      45.122  23.463 -18.471  0.00  0.00    -0.020 A 
ATOM      2  CD2 TYR A   1      44.161  23.860 -17.546  0.00  0.00    -0.001 A 
ATOM      3  CE2 TYR A   1      42.991  23.098 -17.416  0.00  0.00    +0.036 A 
ATOM      4  CZ  TYR A   1      42.789  21.970 -18.172  0.00  0.00    +0.134 A 
ATOM      5  CE1 TYR A   1      43.735  21.549 -19.076  0.00  0.00    +0.036 A 
ATOM      6  CD1 TYR A   1      44.910  22.319 -19.225  0.00  0.00    -0.001 A 
ENDROOT
BRANCH   4   7
ATOM      7  OH  TYR A   1      41.608  21.274 -17.979  0.00  0.00    -0.506 OA
ATOM      8  HH  TYR A   1      41.064  21.734 -17.292  0.00  0.00    +0.292 HD
ENDBRANCH   4   7
BRANCH   1   9
ATOM      9  CB  TYR A   1      46.408  24.297 -18.596  0.00  0.00    +0.051 C 
BRANCH   9  10
ATOM     10  CA  TYR A   1      46.278  25.507 -19.515  0.00  0.00    +0.137 C 
BRANCH  10  11
ATOM     11  N   TYR A   1      46.126  25.029 -20.888  0.00  0.00    -0.239 NA
ATOM     12  H   TYR A   1      46.927  24.521 -21.314  0.00  0.00    +0.142 HD
ENDBRANCH  10  11
BRANCH  10  13
ATOM     13  C   TYR A   1      47.460  26.473 -19.395  0.00  0.00    +0.224 C 
ATOM     14  O   TYR A   1      47.706  26.918 -18.286  0.00  0.00    -0.287 OA
ENDBRANCH  10  13
ENDBRANCH   9  10
ENDBRANCH   1   9
TORSDOF 5
REMARK  Name = ../refined-set-2016/1azm/1azm_pocket.pdb
REMARK  150 active torsions:
REMARK  status: ('A' for Active; 'I' for Inactive)
REMARK    1  A    between atoms: _1  and  _3
REMARK    2  A    between atoms: _3  and  _4
REMARK    3  A    between atoms: _3  and  _6
REMARK    4  A    between atoms: _6  and  _7
REMARK    5  A    between atoms: _17  and  _19
REMARK    6  A    between atoms: _19  and  _20
REMARK    7  A    between atoms: _19  and  _22
REMARK    8  A    between atoms: _22  and  _23
REMARK    9  A    between atoms: _28  and  _29
REMARK   10  A    between atoms: _31  and  _33
REMARK   11  A    between atoms: _33  and  _34
REMARK   12  A    between atoms: _33  and  _36
REMARK   13  A    between atoms: _36  and  _37
REMARK   14  A    between atoms: _40  and  _41
REMARK   15  A    between atoms: _46  and  _48
REMARK   16  A    between atoms: _48  and  _49
REMARK   17  A    between atoms: _48  and  _51
REMARK   18  A    between atoms: _51  and  _52
REMARK   19  A    between atoms: _57  and  _59
REMARK   20  A    between atoms: _59  and  _60
REMARK   21  A    between atoms: _59  and  _62
REMARK   22  A    between atoms: _62  and  _63
REMARK   23  A    between atoms: _65  and  _67
REMARK   24  A    between atoms: _67  and  _68
REMARK   25  A    between atoms: _67  and  _70
REMARK   26  A    between atoms: _70  and  _71
REMARK   27  A    between atoms: _76  and  _78
REMARK   28  A    between atoms: _78  and  _79
REMARK   29  A    between atoms: _78  and  _81
REMARK   30  A    between atoms: _81  and  _82
REMARK   31  A    between atoms: _88  and  _90
REMARK   32  A    between atoms: _90  and  _91
REMARK   33  A    between atoms: _90  and  _93
REMARK   34  A    between atoms: _93  and  _94
REMARK   35  A    between atoms: _94  and  _95
REMARK   36  A    between atoms: _100  and  _102
REMARK   37  A    between atoms: _102  and  _103
REMARK   38  A    between atoms: _102  and  _105
REMARK   39  A    between atoms: _105  and  _106
REMARK   40  A    between atoms: _112  and  _114
REMARK   41  A    between atoms: _125  and  _128
REMARK   42  A    between atoms: _128  and  _129
REMARK   43  A    between atoms: _137  and  _138
REMARK   44  A    between atoms: _146  and  _148
REMARK   45  A    between atoms: _148  and  _149
REMARK   46  A    between atoms: _148  and  _151
REMARK   47  A    between atoms: _151  and  _152
REMARK   48  A    between atoms: _152  and  _153
REMARK   49  A    between atoms: _156  and  _158
REMARK   50  A    between atoms: _158  and  _159
REMARK   51  A    between atoms: _158  and  _161
REMARK   52  A    between atoms: _161  and  _162
REMARK   53  A    between atoms: _167  and  _169
REMARK   54  A    between atoms: _169  and  _170
REMARK   55  A    between atoms: _169  and  _172
REMARK   56  A    between atoms: _172  and  _173
REMARK   57  A    between atoms: _173  and  _174
REMARK   58  A    between atoms: _177  and  _179
REMARK   59  A    between atoms: _179  and  _180
REMARK   60  A    between atoms: _179  and  _182
REMARK   61  A    between atoms: _182  and  _183
REMARK   62  A    between atoms: _186  and  _188
REMARK   63  A    between atoms: _188  and  _189
REMARK   64  A    between atoms: _188  and  _191
REMARK   65  A    between atoms: _191  and  _192
REMARK   66  A    between atoms: _193  and  ZN_430
REMARK   67  A    between atoms: _197  and  _199
REMARK   68  A    between atoms: _199  and  _200
REMARK   69  A    between atoms: _199  and  _202
REMARK   70  A    between atoms: _205  and  _207
REMARK   71  A    between atoms: _207  and  _208
REMARK   72  A    between atoms: _211  and  _213
REMARK   73  A    between atoms: _213  and  _214
REMARK   74  A    between atoms: _213  and  _216
REMARK   75  A    between atoms: _216  and  _217
REMARK   76  A    between atoms: _222  and  _224
REMARK   77  A    between atoms: _224  and  _225
REMARK   78  A    between atoms: _224  and  _227
REMARK   79  A    between atoms: _227  and  _228
REMARK   80  A    between atoms: _238  and  _240
REMARK   81  A    between atoms: _240  and  _241
REMARK   82  A    between atoms: _240  and  _243
REMARK   83  A    between atoms: _243  and  _244
REMARK   84  A    between atoms: _247  and  _249
REMARK   85  A    between atoms: _249  and  _250
REMARK   86  A    between atoms: _253  and  _255
REMARK   87  A    between atoms: _255  and  _256
REMARK   88  A    between atoms: _259  and  _261
REMARK   89  A    between atoms: _261  and  _262
REMARK   90  A    between atoms: _261  and  _264
REMARK   91  A    between atoms: _264  and  _265
REMARK   92  A    between atoms: _268  and  _270
REMARK   93  A    between atoms: _270  and  _271
REMARK   94  A    between atoms: _274  and  _276
REMARK   95  A    between atoms: _276  and  _277
REMARK   96  A    between atoms: _276  and  _279
REMARK   97  A    between atoms: _282  and  _284
REMARK   98  A    between atoms: _284  and  _285
REMARK   99  A    between atoms: _284  and  _287
REMARK  100  A    between atoms: _287  and  _288
REMARK  101  A    between atoms: _291  and  _293
REMARK  102  A    between atoms: _293  and  _294
REMARK  103  A    between atoms: _296  and  _298
REMARK  104  A    between atoms: _298  and  _299
REMARK  105  A    between atoms: _298  and  _301
REMARK  106  A    between atoms: _301  and  _302
REMARK  107  A    between atoms: _304  and  _306
REMARK  108  A    between atoms: _306  and  _307
REMARK  109  A    between atoms: _306  and  _309
REMARK  110  A    between atoms: _309  and  _310
REMARK  111  A    between atoms: _313  and  _315
REMARK  112  A    between atoms: _315  and  _316
REMARK  113  A    between atoms: _315  and  _318
REMARK  114  A    between atoms: _318  and  _319
REMARK  115  A    between atoms: _322  and  _324
REMARK  116  A    between atoms: _324  and  _325
REMARK  117  A    between atoms: _324  and  _327
REMARK  118  A    between atoms: _327  and  _328
REMARK  119  A    between atoms: _334  and  _335
REMARK  120  A    between atoms: _341  and  _342
REMARK  121  A    between atoms: _347  and  _349
REMARK  122  A    between atoms: _349  and  _350
REMARK  123  A    between atoms: _349  and  _352
REMARK  124  A    between atoms: _352  and  _353
REMARK  125  A    between atoms: _356  and  _358
REMARK  126  A    between atoms: _358  and  _359
REMARK  127  A    between atoms: _358  and  _361
REMARK  128  A    between atoms: _361  and  _362
REMARK  129  A    between atoms: _367  and  _368
REMARK  130  A    between atoms: _370  and  _372
REMARK  131  A    between atoms: _372  and  _373
REMARK  132  A    between atoms: _372  and  _375
REMARK  133  A    between atoms: _375  and  _376
REMARK  134  A    between atoms: _378  and  _380
REMARK  135  A    between atoms: _380  and  _381
REMARK  136  A    between atoms: _380  and  _383
REMARK  137  A    between atoms: _386  and  _388
REMARK  138  A    between atoms: _388  and  _389
REMARK  139  A    between atoms: _388  and  _391
REMARK  140  A    between atoms: _391  and  _392
REMARK  141  A    between atoms: _402  and  _404
REMARK  142  A    between atoms: _404  and  _405
REMARK  143  A    between atoms: _404  and  _407
REMARK  144  A    between atoms: _407  and  _408
REMARK  145  A    between atoms: _413  and  _415
REMARK  146  A    between atoms: _415  and  _416
REMARK  147  A    between atoms: _415  and  _418
REMARK  148  A    between atoms: _418  and  _419
REMARK  149  A    between atoms: _419  and  _420
REMARK  150  A    between atoms: _420  and  _421
REMARK                            x       y       z     vdW  Elec       q    Type
REMARK                         _______ _______ _______ _____ _____    ______ ____
ROOT
ATOM      1  C   SER A   1      33.960  25.068 -12.793  0.00  0.00    +0.244 C 
ATOM      2  N   PRO A   2      34.747  24.854 -11.728  0.00  0.00    -0.273 N 
ATOM      3  CA  PRO A   2      34.365  24.497 -10.368  0.00  0.00    +0.140 C 
ATOM      4  CB  PRO A   2      35.639  23.806  -9.830  0.00  0.00    +0.030 C 
ATOM      5  CG  PRO A   2      36.753  24.651 -10.475  0.00  0.00    +0.024 C 
ATOM      6  CD  PRO A   2      36.214  24.944 -11.874  0.00  0.00    +0.094 C 
ATOM      7  O   SER A   1      34.472  25.311 -13.897  0.00  0.00    -0.273 OA
ENDROOT
BRANCH   3   8
ATOM      8  C   PRO A   2      33.986  25.704  -9.528  0.00  0.00    +0.227 C 
ATOM      9  O   PRO A   2      34.099  26.850 -10.051  0.00  0.00    -0.286 OA
ENDBRANCH   3   8
BRANCH   1  10
ATOM     10  CA  SER A   1      32.442  24.903 -12.604  0.00  0.00    +0.175 C 
BRANCH  10  11
ATOM     11  N   SER A   1      31.694  25.654 -13.612  0.00  0.00    -0.236 NA
ATOM     12  H   SER A   1      31.845  25.418 -14.613  0.00  0.00    +0.142 HD
ENDBRANCH  10  11
BRANCH  10  13
ATOM     13  CB  SER A   1      32.066  23.412 -12.561  0.00  0.00    +0.163 C 
BRANCH  13  14
ATOM     14  OG  SER A   1      30.708  23.266 -12.145  0.00  0.00    -0.380 OA
ATOM     15  H   SER A   1      30.597  23.658 -11.243  0.00  0.00    +0.211 HD
ENDBRANCH  13  14
ENDBRANCH  10  13
ENDBRANCH   1  10
TORSDOF 5
REMARK  Name = ../refined-set-2016/1azm/1azm_pocket.pdb
REMARK  150 active torsions:
REMARK  status: ('A' for Active; 'I' for Inactive)
REMARK    1  A    between atoms: _1  and  _3
REMARK    2  A    between atoms: _3  and  _4
REMARK    3  A    between atoms: _3  and  _6
REMARK    4  A    between atoms: _6  and  _7
REMARK    5  A    between atoms: _17  and  _19
REMARK    6  A    between atoms: _19  and  _20
REMARK    7  A    between atoms: _19  and  _22
REMARK    8  A    between atoms: _22  and  _23
REMARK    9  A    between atoms: _28  and  _29
REMARK   10  A    between atoms: _31  and  _33
REMARK   11  A    between atoms: _33  and  _34
REMARK   12  A    between atoms: _33  and  _36
REMARK   13  A    between atoms: _36  and  _37
REMARK   14  A    between atoms: _40  and  _41
REMARK   15  A    between atoms: _46  and  _48
REMARK   16  A    between atoms: _48  and  _49
REMARK   17  A    between atoms: _48  and  _51
REMARK   18  A    between atoms: _51  and  _52
REMARK   19  A    between atoms: _57  and  _59
REMARK   20  A    between atoms: _59  and  _60
REMARK   21  A    between atoms: _59  and  _62
REMARK   22  A    between atoms: _62  and  _63
REMARK   23  A    between atoms: _65  and  _67
REMARK   24  A    between atoms: _67  and  _68
REMARK   25  A    between atoms: _67  and  _70
REMARK   26  A    between atoms: _70  and  _71
REMARK   27  A    between atoms: _76  and  _78
REMARK   28  A    between atoms: _78  and  _79
REMARK   29  A    between atoms: _78  and  _81
REMARK   30  A    between atoms: _81  and  _82
REMARK   31  A    between atoms: _88  and  _90
REMARK   32  A    between atoms: _90  and  _91
REMARK   33  A    between atoms: _90  and  _93
REMARK   34  A    between atoms: _93  and  _94
REMARK   35  A    between atoms: _94  and  _95
REMARK   36  A    between atoms: _100  and  _102
REMARK   37  A    between atoms: _102  and  _103
REMARK   38  A    between atoms: _102  and  _105
REMARK   39  A    between atoms: _105  and  _106
REMARK   40  A    between atoms: _112  and  _114
REMARK   41  A    between atoms: _125  and  _128
REMARK   42  A    between atoms: _128  and  _129
REMARK   43  A    between atoms: _137  and  _138
REMARK   44  A    between atoms: _146  and  _148
REMARK   45  A    between atoms: _148  and  _149
REMARK   46  A    between atoms: _148  and  _151
REMARK   47  A    between atoms: _151  and  _152
REMARK   48  A    between atoms: _152  and  _153
REMARK   49  A    between atoms: _156  and  _158
REMARK   50  A    between atoms: _158  and  _159
REMARK   51  A    between atoms: _158  and  _161
REMARK   52  A    between atoms: _161  and  _162
REMARK   53  A    between atoms: _167  and  _169
REMARK   54  A    between atoms: _169  and  _170
REMARK   55  A    between atoms: _169  and  _172
REMARK   56  A    between atoms: _172  and  _173
REMARK   57  A    between atoms: _173  and  _174
REMARK   58  A    between atoms: _177  and  _179
REMARK   59  A    between atoms: _179  and  _180
REMARK   60  A    between atoms: _179  and  _182
REMARK   61  A    between atoms: _182  and  _183
REMARK   62  A    between atoms: _186  and  _188
REMARK   63  A    between atoms: _188  and  _189
REMARK   64  A    between atoms: _188  and  _191
REMARK   65  A    between atoms: _191  and  _192
REMARK   66  A    between atoms: _193  and  ZN_430
REMARK   67  A    between atoms: _197  and  _199
REMARK   68  A    between atoms: _199  and  _200
REMARK   69  A    between atoms: _199  and  _202
REMARK   70  A    between atoms: _205  and  _207
REMARK   71  A    between atoms: _207  and  _208
REMARK   72  A    between atoms: _211  and  _213
REMARK   73  A    between atoms: _213  and  _214
REMARK   74  A    between atoms: _213  and  _216
REMARK   75  A    between atoms: _216  and  _217
REMARK   76  A    between atoms: _222  and  _224
REMARK   77  A    between atoms: _224  and  _225
REMARK   78  A    between atoms: _224  and  _227
REMARK   79  A    between atoms: _227  and  _228
REMARK   80  A    between atoms: _238  and  _240
REMARK   81  A    between atoms: _240  and  _241
REMARK   82  A    between atoms: _240  and  _243
REMARK   83  A    between atoms: _243  and  _244
REMARK   84  A    between atoms: _247  and  _249
REMARK   85  A    between atoms: _249  and  _250
REMARK   86  A    between atoms: _253  and  _255
REMARK   87  A    between atoms: _255  and  _256
REMARK   88  A    between atoms: _259  and  _261
REMARK   89  A    between atoms: _261  and  _262
REMARK   90  A    between atoms: _261  and  _264
REMARK   91  A    between atoms: _264  and  _265
REMARK   92  A    between atoms: _268  and  _270
REMARK   93  A    between atoms: _270  and  _271
REMARK   94  A    between atoms: _274  and  _276
REMARK   95  A    between atoms: _276  and  _277
REMARK   96  A    between atoms: _276  and  _279
REMARK   97  A    between atoms: _282  and  _284
REMARK   98  A    between atoms: _284  and  _285
REMARK   99  A    between atoms: _284  and  _287
REMARK  100  A    between atoms: _287  and  _288
REMARK  101  A    between atoms: _291  and  _293
REMARK  102  A    between atoms: _293  and  _294
REMARK  103  A    between atoms: _296  and  _298
REMARK  104  A    between atoms: _298  and  _299
REMARK  105  A    between atoms: _298  and  _301
REMARK  106  A    between atoms: _301  and  _302
REMARK  107  A    between atoms: _304  and  _306
REMARK  108  A    between atoms: _306  and  _307
REMARK  109  A    between atoms: _306  and  _309
REMARK  110  A    between atoms: _309  and  _310
REMARK  111  A    between atoms: _313  and  _315
REMARK  112  A    between atoms: _315  and  _316
REMARK  113  A    between atoms: _315  and  _318
REMARK  114  A    between atoms: _318  and  _319
REMARK  115  A    between atoms: _322  and  _324
REMARK  116  A    between atoms: _324  and  _325
REMARK  117  A    between atoms: _324  and  _327
REMARK  118  A    between atoms: _327  and  _328
REMARK  119  A    between atoms: _334  and  _335
REMARK  120  A    between atoms: _341  and  _342
REMARK  121  A    between atoms: _347  and  _349
REMARK  122  A    between atoms: _349  and  _350
REMARK  123  A    between atoms: _349  and  _352
REMARK  124  A    between atoms: _352  and  _353
REMARK  125  A    between atoms: _356  and  _358
REMARK  126  A    between atoms: _358  and  _359
REMARK  127  A    between atoms: _358  and  _361
REMARK  128  A    between atoms: _361  and  _362
REMARK  129  A    between atoms: _367  and  _368
REMARK  130  A    between atoms: _370  and  _372
REMARK  131  A    between atoms: _372  and  _373
REMARK  132  A    between atoms: _372  and  _375
REMARK  133  A    between atoms: _375  and  _376
REMARK  134  A    between atoms: _378  and  _380
REMARK  135  A    between atoms: _380  and  _381
REMARK  136  A    between atoms: _380  and  _383
REMARK  137  A    between atoms: _386  and  _388
REMARK  138  A    between atoms: _388  and  _389
REMARK  139  A    between atoms: _388  and  _391
REMARK  140  A    between atoms: _391  and  _392
REMARK  141  A    between atoms: _402  and  _404
REMARK  142  A    between atoms: _404  and  _405
REMARK  143  A    between atoms: _404  and  _407
REMARK  144  A    between atoms: _407  and  _408
REMARK  145  A    between atoms: _413  and  _415
REMARK  146  A    between atoms: _415  and  _416
REMARK  147  A    between atoms: _415  and  _418
REMARK  148  A    between atoms: _418  and  _419
REMARK  149  A    between atoms: _419  and  _420
REMARK  150  A    between atoms: _420  and  _421
REMARK                            x       y       z     vdW  Elec       q    Type
REMARK                         _______ _______ _______ _____ _____    ______ ____
ROOT
ATOM      1  C   HIS A   1      45.825  16.994 -20.202  0.00  0.00    +0.239 C 
ATOM      2  O   HIS A   1      45.849  17.565 -19.096  0.00  0.00    -0.274 OA
ATOM      3  N   SER A   2      45.643  15.678 -20.386  0.00  0.00    -0.296 N 
ATOM      4  H   SER A   2      45.695  15.295 -21.351  0.00  0.00    +0.150 HD
ENDROOT
BRANCH   1   5
ATOM      5  CA  HIS A   1      46.066  17.849 -21.449  0.00  0.00    +0.151 C 
BRANCH   5   6
ATOM      6  N   HIS A   1      46.228  16.971 -22.633  0.00  0.00    -0.238 NA
ATOM      7  H   HIS A   1      45.380  16.677 -23.159  0.00  0.00    +0.142 HD
ENDBRANCH   5   6
BRANCH   5   8
ATOM      8  CB  HIS A   1      44.936  18.874 -21.573  0.00  0.00    +0.074 C 
BRANCH   8   9
ATOM      9  CG  HIS A   1      43.608  18.207 -21.779  0.00  0.00    +0.082 A 
ATOM     10  CD2 HIS A   1      42.652  17.878 -20.880  0.00  0.00    +0.115 A 
ATOM     11  NE2 HIS A   1      41.686  17.240 -21.575  0.00  0.00    -0.221 NA
ATOM     12  CE1 HIS A   1      41.941  17.275 -22.863  0.00  0.00    +0.199 A 
ATOM     13  ND1 HIS A   1      43.124  17.868 -23.063  0.00  0.00    -0.227 NA
ENDBRANCH   8   9
ENDBRANCH   5   8
ENDBRANCH   1   5
BRANCH   3  14
ATOM     14  CA  SER A   2      45.375  14.765 -19.279  0.00  0.00    +0.166 C 
BRANCH  14  15
ATOM     15  CB  SER A   2      45.328  13.343 -19.816  0.00  0.00    +0.229 C 
ATOM     16  OG  SER A   2      45.695  13.145 -21.000  0.00  0.00    -0.286 OA
ENDBRANCH  14  15
BRANCH  14  17
ATOM     17  C   SER A   2      43.947  15.166 -18.734  0.00  0.00    +0.165 C 
BRANCH  17  18
ATOM     18  O   SER A   2      43.592  14.404 -17.595  0.00  0.00    -0.380 OA
ATOM     19  H   SER A   2      42.695  14.680 -17.281  0.00  0.00    +0.211 HD
ENDBRANCH  17  18
ENDBRANCH  14  17
ENDBRANCH   3  14
TORSDOF 8
REMARK  Name = ../refined-set-2016/1azm/1azm_pocket.pdb
REMARK  150 active torsions:
REMARK  status: ('A' for Active; 'I' for Inactive)
REMARK    1  A    between atoms: _1  and  _3
REMARK    2  A    between atoms: _3  and  _4
REMARK    3  A    between atoms: _3  and  _6
REMARK    4  A    between atoms: _6  and  _7
REMARK    5  A    between atoms: _17  and  _19
REMARK    6  A    between atoms: _19  and  _20
REMARK    7  A    between atoms: _19  and  _22
REMARK    8  A    between atoms: _22  and  _23
REMARK    9  A    between atoms: _28  and  _29
REMARK   10  A    between atoms: _31  and  _33
REMARK   11  A    between atoms: _33  and  _34
REMARK   12  A    between atoms: _33  and  _36
REMARK   13  A    between atoms: _36  and  _37
REMARK   14  A    between atoms: _40  and  _41
REMARK   15  A    between atoms: _46  and  _48
REMARK   16  A    between atoms: _48  and  _49
REMARK   17  A    between atoms: _48  and  _51
REMARK   18  A    between atoms: _51  and  _52
REMARK   19  A    between atoms: _57  and  _59
REMARK   20  A    between atoms: _59  and  _60
REMARK   21  A    between atoms: _59  and  _62
REMARK   22  A    between atoms: _62  and  _63
REMARK   23  A    between atoms: _65  and  _67
REMARK   24  A    between atoms: _67  and  _68
REMARK   25  A    between atoms: _67  and  _70
REMARK   26  A    between atoms: _70  and  _71
REMARK   27  A    between atoms: _76  and  _78
REMARK   28  A    between atoms: _78  and  _79
REMARK   29  A    between atoms: _78  and  _81
REMARK   30  A    between atoms: _81  and  _82
REMARK   31  A    between atoms: _88  and  _90
REMARK   32  A    between atoms: _90  and  _91
REMARK   33  A    between atoms: _90  and  _93
REMARK   34  A    between atoms: _93  and  _94
REMARK   35  A    between atoms: _94  and  _95
REMARK   36  A    between atoms: _100  and  _102
REMARK   37  A    between atoms: _102  and  _103
REMARK   38  A    between atoms: _102  and  _105
REMARK   39  A    between atoms: _105  and  _106
REMARK   40  A    between atoms: _112  and  _114
REMARK   41  A    between atoms: _125  and  _128
REMARK   42  A    between atoms: _128  and  _129
REMARK   43  A    between atoms: _137  and  _138
REMARK   44  A    between atoms: _146  and  _148
REMARK   45  A    between atoms: _148  and  _149
REMARK   46  A    between atoms: _148  and  _151
REMARK   47  A    between atoms: _151  and  _152
REMARK   48  A    between atoms: _152  and  _153
REMARK   49  A    between atoms: _156  and  _158
REMARK   50  A    between atoms: _158  and  _159
REMARK   51  A    between atoms: _158  and  _161
REMARK   52  A    between atoms: _161  and  _162
REMARK   53  A    between atoms: _167  and  _169
REMARK   54  A    between atoms: _169  and  _170
REMARK   55  A    between atoms: _169  and  _172
REMARK   56  A    between atoms: _172  and  _173
REMARK   57  A    between atoms: _173  and  _174
REMARK   58  A    between atoms: _177  and  _179
REMARK   59  A    between atoms: _179  and  _180
REMARK   60  A    between atoms: _179  and  _182
REMARK   61  A    between atoms: _182  and  _183
REMARK   62  A    between atoms: _186  and  _188
REMARK   63  A    between atoms: _188  and  _189
REMARK   64  A    between atoms: _188  and  _191
REMARK   65  A    between atoms: _191  and  _192
REMARK   66  A    between atoms: _193  and  ZN_430
REMARK   67  A    between atoms: _197  and  _199
REMARK   68  A    between atoms: _199  and  _200
REMARK   69  A    between atoms: _199  and  _202
REMARK   70  A    between atoms: _205  and  _207
REMARK   71  A    between atoms: _207  and  _208
REMARK   72  A    between atoms: _211  and  _213
REMARK   73  A    between atoms: _213  and  _214
REMARK   74  A    between atoms: _213  and  _216
REMARK   75  A    between atoms: _216  and  _217
REMARK   76  A    between atoms: _222  and  _224
REMARK   77  A    between atoms: _224  and  _225
REMARK   78  A    between atoms: _224  and  _227
REMARK   79  A    between atoms: _227  and  _228
REMARK   80  A    between atoms: _238  and  _240
REMARK   81  A    between atoms: _240  and  _241
REMARK   82  A    between atoms: _240  and  _243
REMARK   83  A    between atoms: _243  and  _244
REMARK   84  A    between atoms: _247  and  _249
REMARK   85  A    between atoms: _249  and  _250
REMARK   86  A    between atoms: _253  and  _255
REMARK   87  A    between atoms: _255  and  _256
REMARK   88  A    between atoms: _259  and  _261
REMARK   89  A    between atoms: _261  and  _262
REMARK   90  A    between atoms: _261  and  _264
REMARK   91  A    between atoms: _264  and  _265
REMARK   92  A    between atoms: _268  and  _270
REMARK   93  A    between atoms: _270  and  _271
REMARK   94  A    between atoms: _274  and  _276
REMARK   95  A    between atoms: _276  and  _277
REMARK   96  A    between atoms: _276  and  _279
REMARK   97  A    between atoms: _282  and  _284
REMARK   98  A    between atoms: _284  and  _285
REMARK   99  A    between atoms: _284  and  _287
REMARK  100  A    between atoms: _287  and  _288
REMARK  101  A    between atoms: _291  and  _293
REMARK  102  A    between atoms: _293  and  _294
REMARK  103  A    between atoms: _296  and  _298
REMARK  104  A    between atoms: _298  and  _299
REMARK  105  A    between atoms: _298  and  _301
REMARK  106  A    between atoms: _301  and  _302
REMARK  107  A    between atoms: _304  and  _306
REMARK  108  A    between atoms: _306  and  _307
REMARK  109  A    between atoms: _306  and  _309
REMARK  110  A    between atoms: _309  and  _310
REMARK  111  A    between atoms: _313  and  _315
REMARK  112  A    between atoms: _315  and  _316
REMARK  113  A    between atoms: _315  and  _318
REMARK  114  A    between atoms: _318  and  _319
REMARK  115  A    between atoms: _322  and  _324
REMARK  116  A    between atoms: _324  and  _325
REMARK  117  A    between atoms: _324  and  _327
REMARK  118  A    between atoms: _327  and  _328
REMARK  119  A    between atoms: _334  and  _335
REMARK  120  A    between atoms: _341  and  _342
REMARK  121  A    between atoms: _347  and  _349
REMARK  122  A    between atoms: _349  and  _350
REMARK  123  A    between atoms: _349  and  _352
REMARK  124  A    between atoms: _352  and  _353
REMARK  125  A    between atoms: _356  and  _358
REMARK  126  A    between atoms: _358  and  _359
REMARK  127  A    between atoms: _358  and  _361
REMARK  128  A    between atoms: _361  and  _362
REMARK  129  A    between atoms: _367  and  _368
REMARK  130  A    between atoms: _370  and  _372
REMARK  131  A    between atoms: _372  and  _373
REMARK  132  A    between atoms: _372  and  _375
REMARK  133  A    between atoms: _375  and  _376
REMARK  134  A    between atoms: _378  and  _380
REMARK  135  A    between atoms: _380  and  _381
REMARK  136  A    between atoms: _380  and  _383
REMARK  137  A    between atoms: _386  and  _388
REMARK  138  A    between atoms: _388  and  _389
REMARK  139  A    between atoms: _388  and  _391
REMARK  140  A    between atoms: _391  and  _392
REMARK  141  A    between atoms: _402  and  _404
REMARK  142  A    between atoms: _404  and  _405
REMARK  143  A    between atoms: _404  and  _407
REMARK  144  A    between atoms: _407  and  _408
REMARK  145  A    between atoms: _413  and  _415
REMARK  146  A    between atoms: _415  and  _416
REMARK  147  A    between atoms: _415  and  _418
REMARK  148  A    between atoms: _418  and  _419
REMARK  149  A    between atoms: _419  and  _420
REMARK  150  A    between atoms: _420  and  _421
REMARK                            x       y       z     vdW  Elec       q    Type
REMARK                         _______ _______ _______ _____ _____    ______ ____
ROOT
ATOM      1  CB  HIS A   1      40.370   9.440 -20.582  0.00  0.00    +0.072 C 
ENDROOT
BRANCH   1   2
ATOM      2  CG  HIS A   1      40.166  10.905 -20.717  0.00  0.00    +0.082 A 
ATOM      3  CD2 HIS A   1      40.446  11.870 -19.795  0.00  0.00    +0.115 A 
ATOM      4  NE2 HIS A   1      40.087  13.078 -20.309  0.00  0.00    -0.221 NA
ATOM      5  CE1 HIS A   1      39.679  12.870 -21.561  0.00  0.00    +0.199 A 
ATOM      6  ND1 HIS A   1      39.720  11.558 -21.795  0.00  0.00    -0.227 NA
ENDBRANCH   1   2
BRANCH   1   7
ATOM      7  CA  HIS A   1      41.440   9.092 -19.505  0.00  0.00    +0.139 C 
BRANCH   7   8
ATOM      8  N   HIS A   1      42.779   9.646 -19.798  0.00  0.00    -0.239 NA
ATOM      9  H   HIS A   1      43.258   9.360 -20.676  0.00  0.00    +0.142 HD
ENDBRANCH   7   8
BRANCH   7  10
ATOM     10  C   HIS A   1      41.437   7.548 -19.451  0.00  0.00    +0.224 C 
ATOM     11  O   HIS A   1      41.973   6.888 -20.320  0.00  0.00    -0.287 OA
ENDBRANCH   7  10
ENDBRANCH   1   7
TORSDOF 4
REMARK  Name = ../refined-set-2016/1azm/1azm_pocket.pdb
REMARK  150 active torsions:
REMARK  status: ('A' for Active; 'I' for Inactive)
REMARK    1  A    between atoms: _1  and  _3
REMARK    2  A    between atoms: _3  and  _4
REMARK    3  A    between atoms: _3  and  _6
REMARK    4  A    between atoms: _6  and  _7
REMARK    5  A    between atoms: _17  and  _19
REMARK    6  A    between atoms: _19  and  _20
REMARK    7  A    between atoms: _19  and  _22
REMARK    8  A    between atoms: _22  and  _23
REMARK    9  A    between atoms: _28  and  _29
REMARK   10  A    between atoms: _31  and  _33
REMARK   11  A    between atoms: _33  and  _34
REMARK   12  A    between atoms: _33  and  _36
REMARK   13  A    between atoms: _36  and  _37
REMARK   14  A    between atoms: _40  and  _41
REMARK   15  A    between atoms: _46  and  _48
REMARK   16  A    between atoms: _48  and  _49
REMARK   17  A    between atoms: _48  and  _51
REMARK   18  A    between atoms: _51  and  _52
REMARK   19  A    between atoms: _57  and  _59
REMARK   20  A    between atoms: _59  and  _60
REMARK   21  A    between atoms: _59  and  _62
REMARK   22  A    between atoms: _62  and  _63
REMARK   23  A    between atoms: _65  and  _67
REMARK   24  A    between atoms: _67  and  _68
REMARK   25  A    between atoms: _67  and  _70
REMARK   26  A    between atoms: _70  and  _71
REMARK   27  A    between atoms: _76  and  _78
REMARK   28  A    between atoms: _78  and  _79
REMARK   29  A    between atoms: _78  and  _81
REMARK   30  A    between atoms: _81  and  _82
REMARK   31  A    between atoms: _88  and  _90
REMARK   32  A    between atoms: _90  and  _91
REMARK   33  A    between atoms: _90  and  _93
REMARK   34  A    between atoms: _93  and  _94
REMARK   35  A    between atoms: _94  and  _95
REMARK   36  A    between atoms: _100  and  _102
REMARK   37  A    between atoms: _102  and  _103
REMARK   38  A    between atoms: _102  and  _105
REMARK   39  A    between atoms: _105  and  _106
REMARK   40  A    between atoms: _112  and  _114
REMARK   41  A    between atoms: _125  and  _128
REMARK   42  A    between atoms: _128  and  _129
REMARK   43  A    between atoms: _137  and  _138
REMARK   44  A    between atoms: _146  and  _148
REMARK   45  A    between atoms: _148  and  _149
REMARK   46  A    between atoms: _148  and  _151
REMARK   47  A    between atoms: _151  and  _152
REMARK   48  A    between atoms: _152  and  _153
REMARK   49  A    between atoms: _156  and  _158
REMARK   50  A    between atoms: _158  and  _159
REMARK   51  A    between atoms: _158  and  _161
REMARK   52  A    between atoms: _161  and  _162
REMARK   53  A    between atoms: _167  and  _169
REMARK   54  A    between atoms: _169  and  _170
REMARK   55  A    between atoms: _169  and  _172
REMARK   56  A    between atoms: _172  and  _173
REMARK   57  A    between atoms: _173  and  _174
REMARK   58  A    between atoms: _177  and  _179
REMARK   59  A    between atoms: _179  and  _180
REMARK   60  A    between atoms: _179  and  _182
REMARK   61  A    between atoms: _182  and  _183
REMARK   62  A    between atoms: _186  and  _188
REMARK   63  A    between atoms: _188  and  _189
REMARK   64  A    between atoms: _188  and  _191
REMARK   65  A    between atoms: _191  and  _192
REMARK   66  A    between atoms: _193  and  ZN_430
REMARK   67  A    between atoms: _197  and  _199
REMARK   68  A    between atoms: _199  and  _200
REMARK   69  A    between atoms: _199  and  _202
REMARK   70  A    between atoms: _205  and  _207
REMARK   71  A    between atoms: _207  and  _208
REMARK   72  A    between atoms: _211  and  _213
REMARK   73  A    between atoms: _213  and  _214
REMARK   74  A    between atoms: _213  and  _216
REMARK   75  A    between atoms: _216  and  _217
REMARK   76  A    between atoms: _222  and  _224
REMARK   77  A    between atoms: _224  and  _225
REMARK   78  A    between atoms: _224  and  _227
REMARK   79  A    between atoms: _227  and  _228
REMARK   80  A    between atoms: _238  and  _240
REMARK   81  A    between atoms: _240  and  _241
REMARK   82  A    between atoms: _240  and  _243
REMARK   83  A    between atoms: _243  and  _244
REMARK   84  A    between atoms: _247  and  _249
REMARK   85  A    between atoms: _249  and  _250
REMARK   86  A    between atoms: _253  and  _255
REMARK   87  A    between atoms: _255  and  _256
REMARK   88  A    between atoms: _259  and  _261
REMARK   89  A    between atoms: _261  and  _262
REMARK   90  A    between atoms: _261  and  _264
REMARK   91  A    between atoms: _264  and  _265
REMARK   92  A    between atoms: _268  and  _270
REMARK   93  A    between atoms: _270  and  _271
REMARK   94  A    between atoms: _274  and  _276
REMARK   95  A    between atoms: _276  and  _277
REMARK   96  A    between atoms: _276  and  _279
REMARK   97  A    between atoms: _282  and  _284
REMARK   98  A    between atoms: _284  and  _285
REMARK   99  A    between atoms: _284  and  _287
REMARK  100  A    between atoms: _287  and  _288
REMARK  101  A    between atoms: _291  and  _293
REMARK  102  A    between atoms: _293  and  _294
REMARK  103  A    between atoms: _296  and  _298
REMARK  104  A    between atoms: _298  and  _299
REMARK  105  A    between atoms: _298  and  _301
REMARK  106  A    between atoms: _301  and  _302
REMARK  107  A    between atoms: _304  and  _306
REMARK  108  A    between atoms: _306  and  _307
REMARK  109  A    between atoms: _306  and  _309
REMARK  110  A    between atoms: _309  and  _310
REMARK  111  A    between atoms: _313  and  _315
REMARK  112  A    between atoms: _315  and  _316
REMARK  113  A    between atoms: _315  and  _318
REMARK  114  A    between atoms: _318  and  _319
REMARK  115  A    between atoms: _322  and  _324
REMARK  116  A    between atoms: _324  and  _325
REMARK  117  A    between atoms: _324  and  _327
REMARK  118  A    between atoms: _327  and  _328
REMARK  119  A    between atoms: _334  and  _335
REMARK  120  A    between atoms: _341  and  _342
REMARK  121  A    between atoms: _347  and  _349
REMARK  122  A    between atoms: _349  and  _350
REMARK  123  A    between atoms: _349  and  _352
REMARK  124  A    between atoms: _352  and  _353
REMARK  125  A    between atoms: _356  and  _358
REMARK  126  A    between atoms: _358  and  _359
REMARK  127  A    between atoms: _358  and  _361
REMARK  128  A    between atoms: _361  and  _362
REMARK  129  A    between atoms: _367  and  _368
REMARK  130  A    between atoms: _370  and  _372
REMARK  131  A    between atoms: _372  and  _373
REMARK  132  A    between atoms: _372  and  _375
REMARK  133  A    between atoms: _375  and  _376
REMARK  134  A    between atoms: _378  and  _380
REMARK  135  A    between atoms: _380  and  _381
REMARK  136  A    between atoms: _380  and  _383
REMARK  137  A    between atoms: _386  and  _388
REMARK  138  A    between atoms: _388  and  _389
REMARK  139  A    between atoms: _388  and  _391
REMARK  140  A    between atoms: _391  and  _392
REMARK  141  A    between atoms: _402  and  _404
REMARK  142  A    between atoms: _404  and  _405
REMARK  143  A    between atoms: _404  and  _407
REMARK  144  A    between atoms: _407  and  _408
REMARK  145  A    between atoms: _413  and  _415
REMARK  146  A    between atoms: _415  and  _416
REMARK  147  A    between atoms: _415  and  _418
REMARK  148  A    between atoms: _418  and  _419
REMARK  149  A    between atoms: _419  and  _420
REMARK  150  A    between atoms: _420  and  _421
REMARK                            x       y       z     vdW  Elec       q    Type
REMARK                         _______ _______ _______ _____ _____    ______ ____
ROOT
ATOM      1  C   UNK A   4      40.338  11.057 -14.886  0.00  0.00    +0.000 C 
ATOM      2  C   UNK A   4      40.718  11.866 -13.624  0.00  0.00    +0.000 C 
ATOM      3  O   UNK A   4      39.934  11.848 -12.671  0.00  0.00    +0.000 OA
ATOM      4  N   ALA A   5      41.881  12.514 -13.666  0.00  0.00    +0.000 N 
ATOM      5  CA  ALA A   5      42.344  13.308 -12.511  0.00  0.00    +0.000 C 
ATOM      6  C   ALA A   5      42.664  14.732 -12.928  0.00  0.00    +0.000 C 
ATOM      7  N   UNK A   6      42.830  15.607 -12.013  0.00  0.00    +0.000 N 
ATOM      8  H   UNK A   6      42.658  15.270 -11.044  0.00  0.00    +0.000 HD
ATOM      9  C   UNK A   6      43.228  17.022 -12.120  0.00  0.00    +0.000 C 
ATOM     10  C   UNK A   6      42.178  18.141 -11.964  0.00  0.00    +0.000 C 
ATOM     11  C   UNK A   6      41.170  18.096 -13.081  0.00  0.00    +0.000 A 
ATOM     12  C   UNK A   6      40.105  17.261 -13.193  0.00  0.00    +0.000 A 
ATOM     13  N   UNK A   6      39.488  17.558 -14.342  0.00  0.00    +0.000 N 
ATOM     14 ZN   UNK A   6      37.595  16.545 -14.676  0.00  0.00    +0.000 Zn
ATOM     15  N   UNK A   4      37.834  14.711 -15.544  0.00  0.00    +0.000 N 
ATOM     16  C   UNK A   4      39.100  14.168 -15.332  0.00  0.00    +0.000 A 
ATOM     17  C   UNK A   4      39.181  13.000 -16.010  0.00  0.00    +0.000 A 
ATOM     18  N   UNK A   4      37.919  12.788 -16.563  0.00  0.00    +0.000 NA
ATOM     19  C   UNK A   4      37.195  13.876 -16.349  0.00  0.00    +0.000 A 
ATOM     20  C   UNK A   6      40.111  18.559 -14.965  0.00  0.00    +0.000 A 
ATOM     21  N   UNK A   6      41.184  18.835 -14.216  0.00  0.00    +0.000 NA
ATOM     22  O   ALA A   5      42.731  14.952 -14.157  0.00  0.00    +0.000 OA
ATOM     23  H   ALA A   5      42.469  12.460 -14.522  0.00  0.00    +0.000 HD
ATOM     24  C   UNK A   4      40.301  11.998 -16.076  0.00  0.00    +0.000 C 
ENDROOT
BRANCH  14  25
ATOM     25  N   UNK A   6      36.906  16.425 -12.783  0.00  0.00    +0.000 N 
ATOM     26  C   UNK A   6      36.926  17.491 -11.978  0.00  0.00    +0.000 A 
ATOM     27  N   UNK A   6      36.688  17.181 -10.729  0.00  0.00    +0.000 NA
ATOM     28  C   UNK A   6      36.472  15.789 -10.693  0.00  0.00    +0.000 A 
ATOM     29  C   UNK A   6      36.614  15.341 -11.986  0.00  0.00    +0.000 A 
BRANCH  29  30
ATOM     30  C   UNK A   6      36.397  13.957 -12.513  0.00  0.00    +0.000 C 
BRANCH  30  31
ATOM     31  C   UNK A   6      36.434  12.878 -11.416  0.00  0.00    +0.000 C 
BRANCH  31  32
ATOM     32  C   UNK A   6      35.975  11.543 -12.056  0.00  0.00    +0.000 C 
ATOM     33  N   UNK A   4      34.827  11.069 -11.630  0.00  0.00    +0.000 N 
ATOM     34  H   UNK A   4      34.323  11.604 -10.895  0.00  0.00    +0.000 HD
ATOM     35  O   UNK A   6      36.716  11.005 -12.867  0.00  0.00    +0.000 OA
BRANCH  33  36
ATOM     36  C   UNK A   4      34.203   9.821 -12.129  0.00  0.00    +0.000 C 
BRANCH  36  37
ATOM     37  C   UNK A   4      32.866  10.307 -12.813  0.00  0.00    +0.000 C 
ATOM     38  O   UNK A   4      31.915  10.787 -12.181  0.00  0.00    +0.000 OA
ATOM     39  N   ALA A   5      32.859  10.177 -14.118  0.00  0.00    +0.000 N 
ATOM     40  H   ALA A   5      33.657   9.675 -14.557  0.00  0.00    +0.000 HD
BRANCH  39  41
ATOM     41  CA  ALA A   5      31.801  10.692 -15.007  0.00  0.00    +0.000 C 
ATOM     42  CB  ALA A   5      32.477  11.416 -16.176  0.00  0.00    +0.000 C 
BRANCH  41  43
ATOM     43  C   ALA A   5      30.884   9.625 -15.506  0.00  0.00    +0.000 C 
ATOM     44  N   UNK A   6      29.640  10.014 -15.589  0.00  0.00    +0.000 N 
ATOM     45  H   UNK A   6      29.417  10.989 -15.303  0.00  0.00    +0.000 HD
ATOM     46  O   ALA A   5      31.290   8.472 -15.790  0.00  0.00    +0.000 OA
BRANCH  44  47
ATOM     47  C   UNK A   6      28.527   9.164 -16.061  0.00  0.00    +0.000 C 
BRANCH  47  48
ATOM     48  C   UNK A   6      27.575   9.974 -16.958  0.00  0.00    +0.000 C 
ATOM     49  O   UNK A   6      27.482  11.180 -16.746  0.00  0.00    +0.000 OA
ATOM     50  N   TRP A   7      26.827   9.294 -17.844  0.00  0.00    +0.000 N 
ATOM     51  H   TRP A   7      26.916   8.261 -17.921  0.00  0.00    +0.000 HD
BRANCH  50  52
ATOM     52  CA  TRP A   7      25.878  10.025 -18.708  0.00  0.00    +0.000 C 
BRANCH  52  53
ATOM     53  C   TRP A   7      24.469   9.417 -18.543  0.00  0.00    +0.000 C 
ATOM     54  O   TRP A   7      24.212   8.262 -18.186  0.00  0.00    +0.000 OA
ENDBRANCH  52  53
BRANCH  52  55
ATOM     55  CB  TRP A   7      26.355  10.170 -20.139  0.00  0.00    +0.000 C 
BRANCH  55  56
ATOM     56  CG  TRP A   7      26.561   8.860 -20.835  0.00  0.00    +0.000 A 
ATOM     57  CD1 TRP A   7      27.700   8.116 -20.883  0.00  0.00    +0.000 A 
ATOM     58  NE1 TRP A   7      27.514   6.993 -21.667  0.00  0.00    +0.000 N 
ATOM     59  HE1 TRP A   7      28.226   6.260 -21.860  0.00  0.00    +0.000 HD
ATOM     60  CE2 TRP A   7      26.218   7.013 -22.150  0.00  0.00    +0.000 A 
ATOM     61  CZ2 TRP A   7      25.573   6.129 -23.013  0.00  0.00    +0.000 A 
ATOM     62  CH2 TRP A   7      24.267   6.449 -23.385  0.00  0.00    +0.000 A 
ATOM     63  CZ3 TRP A   7      23.630   7.606 -22.919  0.00  0.00    +0.000 A 
ATOM     64  CE3 TRP A   7      24.294   8.490 -22.065  0.00  0.00    +0.000 A 
ATOM     65  CD2 TRP A   7      25.595   8.188 -21.668  0.00  0.00    +0.000 A 
ENDBRANCH  55  56
ENDBRANCH  52  55
ENDBRANCH  50  52
ENDBRANCH  47  48
BRANCH  47  66
ATOM     66  C   UNK A   6      27.604   8.827 -14.819  0.00  0.00    +0.000 C 
BRANCH  66  67
ATOM     67  C   UNK A   6      28.423   8.321 -13.684  0.00  0.00    +0.000 A 
ATOM     68  N   UNK A   6      29.148   9.114 -12.864  0.00  0.00    +0.000 NA
ATOM     69  C   UNK A   6      29.766   8.375 -11.973  0.00  0.00    +0.000 A 
ATOM     70  N   UNK A   6      29.416   7.083 -12.182  0.00  0.00    +0.000 NA
ATOM     71  C   UNK A   6      28.566   7.032 -13.257  0.00  0.00    +0.000 A 
ENDBRANCH  66  67
ENDBRANCH  47  66
ENDBRANCH  44  47
ENDBRANCH  41  43
ENDBRANCH  39  41
ENDBRANCH  36  37
BRANCH  36  72
ATOM     72  C   UNK A   4      33.989   8.753 -11.089  0.00  0.00    +0.000 C 
ATOM     73  C   UNK A   4      35.064   8.491 -10.052  0.00  0.00    +0.000 C 
ATOM     74  C   UNK A   4      33.418   7.428 -11.632  0.00  0.00    +0.000 C 
ENDBRANCH  36  72
ENDBRANCH  33  36
ENDBRANCH  31  32
BRANCH  31  75
ATOM     75  N   UNK A   6      37.733  12.698 -10.808  0.00  0.00    +0.000 N 
ATOM     76  C   LEU A   2      38.022  12.850  -9.553  0.00  0.00    +0.000 C 
ATOM     77  O   LEU A   2      37.172  13.224  -8.747  0.00  0.00    +0.000 OA
ATOM     78  H   UNK A   6      38.512  12.419 -11.439  0.00  0.00    +0.000 HD
BRANCH  76  79
ATOM     79  CA  LEU A   2      39.475  12.574  -9.063  0.00  0.00    +0.000 C 
BRANCH  79  80
ATOM     80  N   LEU A   2      39.901  13.672  -8.195  0.00  0.00    +0.000 N 
ATOM     81  H   LEU A   2      39.580  13.645  -7.206  0.00  0.00    +0.000 HD
ATOM     82  C   GLU A   1      40.644  14.678  -8.547  0.00  0.00    +0.000 C 
ATOM     83  O   GLU A   1      41.178  14.749  -9.697  0.00  0.00    +0.000 OA
BRANCH  82  84
ATOM     84  CA  GLU A   1      40.916  15.770  -7.577  0.00  0.00    +0.000 C 
BRANCH  84  85
ATOM     85  N   GLU A   1      42.365  16.142  -7.611  0.00  0.00    +0.000 NA
ATOM     86  H   GLU A   1      42.928  16.006  -8.475  0.00  0.00    +0.000 HD
ENDBRANCH  84  85
BRANCH  84  87
ATOM     87  CB  GLU A   1      40.122  17.010  -8.081  0.00  0.00    +0.000 C 
BRANCH  87  88
ATOM     88  CG  GLU A   1      38.579  16.929  -7.627  0.00  0.00    +0.000 C 
BRANCH  88  89
ATOM     89  CD  GLU A   1      37.896  18.270  -7.853  0.00  0.00    +0.000 C 
ATOM     90  OE2 GLU A   1      38.468  19.209  -7.258  0.00  0.00    +0.000 OA
ATOM     91  OE1 GLU A   1      36.839  18.419  -8.483  0.00  0.00    +0.000 OA
ENDBRANCH  88  89
ENDBRANCH  87  88
ENDBRANCH  84  87
ENDBRANCH  82  84
ENDBRANCH  79  80
BRANCH  79  92
ATOM     92  CB  LEU A   2      39.570  11.274  -8.232  0.00  0.00    +0.000 C 
BRANCH  92  93
ATOM     93  CG  LEU A   2      38.658  10.108  -8.669  0.00  0.00    +0.000 C 
ATOM     94  CD2 LEU A   2      38.496   9.068  -7.545  0.00  0.00    +0.000 C 
ATOM     95  CD1 LEU A   2      39.319   9.423  -9.879  0.00  0.00    +0.000 C 
ENDBRANCH  92  93
ENDBRANCH  79  92
ENDBRANCH  76  79
ENDBRANCH  31  75
ENDBRANCH  30  31
ENDBRANCH  29  30
ENDBRANCH  14  25
BRANCH   1  97
ATOM     96  C   UNK A   3      38.751   9.220 -15.238  0.00  0.00    +0.000 C 
ATOM     97  N   UNK A   4      39.080  10.329 -14.579  0.00  0.00    +0.000 N 
ATOM     98  H   UNK A   4      38.447  10.691 -13.838  0.00  0.00    +0.000 HD
ATOM     99  O   UNK A   3      39.368   8.677 -16.222  0.00  0.00    +0.000 OA
BRANCH  96 100
ATOM    100  C   UNK A   3      37.432   8.550 -14.739  0.00  0.00    +0.000 C 
BRANCH 100 103
ATOM    101  C   LEU A   2      35.543   7.943 -16.240  0.00  0.00    +0.000 C 
ATOM    102  O   LEU A   2      34.694   8.367 -15.428  0.00  0.00    +0.000 OA
ATOM    103  N   UNK A   3      36.840   7.891 -15.952  0.00  0.00    +0.000 N 
ATOM    104  H   UNK A   3      37.472   7.372 -16.594  0.00  0.00    +0.000 HD
BRANCH 101 105
ATOM    105  CA  LEU A   2      35.186   7.424 -17.605  0.00  0.00    +0.000 C 
BRANCH 105 107
ATOM    106  C   GLU A   1      33.381   6.433 -18.806  0.00  0.00    +0.000 C 
ATOM    107  N   LEU A   2      33.719   7.140 -17.744  0.00  0.00    +0.000 N 
ATOM    108  H   LEU A   2      33.019   7.476 -17.053  0.00  0.00    +0.000 HD
ATOM    109  O   GLU A   1      34.252   6.034 -19.620  0.00  0.00    +0.000 OA
BRANCH 106 110
ATOM    110  CA  GLU A   1      31.867   6.138 -19.049  0.00  0.00    +0.000 C 
BRANCH 110 111
ATOM    111  N   GLU A   1      31.139   6.143 -17.774  0.00  0.00    +0.000 NA
ATOM    112  H   GLU A   1      31.246   6.950 -17.127  0.00  0.00    +0.000 HD
ENDBRANCH 110 111
BRANCH 110 113
ATOM    113  CB  GLU A   1      31.256   7.003 -20.135  0.00  0.00    +0.000 C 
BRANCH 113 114
ATOM    114  CG  GLU A   1      31.349   8.505 -19.958  0.00  0.00    +0.000 A 
ATOM    115  CD2 GLU A   1      30.403   9.194 -19.239  0.00  0.00    +0.000 A 
ATOM    116  CE2 GLU A   1      30.473  10.586 -19.087  0.00  0.00    +0.000 A 
ATOM    117  CZ  GLU A   1      31.522  11.309 -19.652  0.00  0.00    +0.000 A 
ATOM    118  CE1 GLU A   1      32.518  10.605 -20.399  0.00  0.00    +0.000 A 
ATOM    119  CD1 GLU A   1      32.408   9.209 -20.518  0.00  0.00    +0.000 A 
ENDBRANCH 113 114
ENDBRANCH 110 113
ENDBRANCH 106 110
ENDBRANCH 105 107
BRANCH 105 120
ATOM    120  CB  LEU A   2      35.446   8.521 -18.688  0.00  0.00    +0.000 C 
BRANCH 120 121
ATOM    121  CG  LEU A   2      36.814   9.209 -18.547  0.00  0.00    +0.000 C 
BRANCH 121 122
ATOM    122  CD  LEU A   2      36.862  10.501 -19.325  0.00  0.00    +0.000 C 
ATOM    123  OE1 LEU A   2      36.828  11.582 -18.778  0.00  0.00    +0.000 OA
ATOM    124  NE2 LEU A   2      37.001  10.375 -20.652  0.00  0.00    +0.000 N 
ATOM    125 HE21 LEU A   2      37.026   9.430 -21.085  0.00  0.00    +0.000 HD
ATOM    126 HE22 LEU A   2      37.084  11.223 -21.249  0.00  0.00    +0.000 HD
ENDBRANCH 121 122
ENDBRANCH 120 121
ENDBRANCH 105 120
ENDBRANCH 101 105
ENDBRANCH 100 103
BRANCH 100 127
ATOM    127  C   UNK A   3      37.493   7.742 -13.509  0.00  0.00    +0.000 C 
BRANCH 127 128
ATOM    128  C   UNK A   3      38.554   6.701 -13.385  0.00  0.00    +0.000 A 
ATOM    129  C   UNK A   3      39.858   7.154 -13.017  0.00  0.00    +0.000 A 
ATOM    130  C   UNK A   3      40.905   6.236 -12.896  0.00  0.00    +0.000 A 
ATOM    131  C   UNK A   3      40.653   4.882 -13.144  0.00  0.00    +0.000 A 
ATOM    132  C   UNK A   3      39.352   4.437 -13.460  0.00  0.00    +0.000 A 
ATOM    133  C   UNK A   3      38.298   5.351 -13.592  0.00  0.00    +0.000 A 
ENDBRANCH 127 128
ENDBRANCH 100 127
ENDBRANCH  96 100
ENDBRANCH   1  97
BRANCH   9 134
ATOM    134  C   UNK A   6      44.309  17.290 -11.051  0.00  0.00    +0.000 C 
ATOM    135  O   UNK A   6      44.131  16.790  -9.911  0.00  0.00    +0.000 OA
ENDBRANCH   9 134
BRANCH   5 136
ATOM    136  CB  ALA A   5      43.623  12.687 -11.877  0.00  0.00    +0.000 C 
BRANCH 136 137
ATOM    137  CG  ALA A   5      43.451  11.303 -11.318  0.00  0.00    +0.000 A 
ATOM    138  CD2 ALA A   5      43.141  11.148  -9.946  0.00  0.00    +0.000 A 
ATOM    139  CE2 ALA A   5      42.987   9.867  -9.412  0.00  0.00    +0.000 A 
ATOM    140  CZ  ALA A   5      43.166   8.740 -10.234  0.00  0.00    +0.000 A 
ATOM    141  CE1 ALA A   5      43.490   8.888 -11.591  0.00  0.00    +0.000 A 
ATOM    142  CD1 ALA A   5      43.614  10.194 -12.090  0.00  0.00    +0.000 A 
ENDBRANCH 136 137
ENDBRANCH   5 136
TORSDOF 44
REMARK  Name = ../refined-set-2016/1azm/1azm_pocket.pdb
REMARK  150 active torsions:
REMARK  status: ('A' for Active; 'I' for Inactive)
REMARK    1  A    between atoms: _1  and  _3
REMARK    2  A    between atoms: _3  and  _4
REMARK    3  A    between atoms: _3  and  _6
REMARK    4  A    between atoms: _6  and  _7
REMARK    5  A    between atoms: _17  and  _19
REMARK    6  A    between atoms: _19  and  _20
REMARK    7  A    between atoms: _19  and  _22
REMARK    8  A    between atoms: _22  and  _23
REMARK    9  A    between atoms: _28  and  _29
REMARK   10  A    between atoms: _31  and  _33
REMARK   11  A    between atoms: _33  and  _34
REMARK   12  A    between atoms: _33  and  _36
REMARK   13  A    between atoms: _36  and  _37
REMARK   14  A    between atoms: _40  and  _41
REMARK   15  A    between atoms: _46  and  _48
REMARK   16  A    between atoms: _48  and  _49
REMARK   17  A    between atoms: _48  and  _51
REMARK   18  A    between atoms: _51  and  _52
REMARK   19  A    between atoms: _57  and  _59
REMARK   20  A    between atoms: _59  and  _60
REMARK   21  A    between atoms: _59  and  _62
REMARK   22  A    between atoms: _62  and  _63
REMARK   23  A    between atoms: _65  and  _67
REMARK   24  A    between atoms: _67  and  _68
REMARK   25  A    between atoms: _67  and  _70
REMARK   26  A    between atoms: _70  and  _71
REMARK   27  A    between atoms: _76  and  _78
REMARK   28  A    between atoms: _78  and  _79
REMARK   29  A    between atoms: _78  and  _81
REMARK   30  A    between atoms: _81  and  _82
REMARK   31  A    between atoms: _88  and  _90
REMARK   32  A    between atoms: _90  and  _91
REMARK   33  A    between atoms: _90  and  _93
REMARK   34  A    between atoms: _93  and  _94
REMARK   35  A    between atoms: _94  and  _95
REMARK   36  A    between atoms: _100  and  _102
REMARK   37  A    between atoms: _102  and  _103
REMARK   38  A    between atoms: _102  and  _105
REMARK   39  A    between atoms: _105  and  _106
REMARK   40  A    between atoms: _112  and  _114
REMARK   41  A    between atoms: _125  and  _128
REMARK   42  A    between atoms: _128  and  _129
REMARK   43  A    between atoms: _137  and  _138
REMARK   44  A    between atoms: _146  and  _148
REMARK   45  A    between atoms: _148  and  _149
REMARK   46  A    between atoms: _148  and  _151
REMARK   47  A    between atoms: _151  and  _152
REMARK   48  A    between atoms: _152  and  _153
REMARK   49  A    between atoms: _156  and  _158
REMARK   50  A    between atoms: _158  and  _159
REMARK   51  A    between atoms: _158  and  _161
REMARK   52  A    between atoms: _161  and  _162
REMARK   53  A    between atoms: _167  and  _169
REMARK   54  A    between atoms: _169  and  _170
REMARK   55  A    between atoms: _169  and  _172
REMARK   56  A    between atoms: _172  and  _173
REMARK   57  A    between atoms: _173  and  _174
REMARK   58  A    between atoms: _177  and  _179
REMARK   59  A    between atoms: _179  and  _180
REMARK   60  A    between atoms: _179  and  _182
REMARK   61  A    between atoms: _182  and  _183
REMARK   62  A    between atoms: _186  and  _188
REMARK   63  A    between atoms: _188  and  _189
REMARK   64  A    between atoms: _188  and  _191
REMARK   65  A    between atoms: _191  and  _192
REMARK   66  A    between atoms: _193  and  ZN_430
REMARK   67  A    between atoms: _197  and  _199
REMARK   68  A    between atoms: _199  and  _200
REMARK   69  A    between atoms: _199  and  _202
REMARK   70  A    between atoms: _205  and  _207
REMARK   71  A    between atoms: _207  and  _208
REMARK   72  A    between atoms: _211  and  _213
REMARK   73  A    between atoms: _213  and  _214
REMARK   74  A    between atoms: _213  and  _216
REMARK   75  A    between atoms: _216  and  _217
REMARK   76  A    between atoms: _222  and  _224
REMARK   77  A    between atoms: _224  and  _225
REMARK   78  A    between atoms: _224  and  _227
REMARK   79  A    between atoms: _227  and  _228
REMARK   80  A    between atoms: _238  and  _240
REMARK   81  A    between atoms: _240  and  _241
REMARK   82  A    between atoms: _240  and  _243
REMARK   83  A    between atoms: _243  and  _244
REMARK   84  A    between atoms: _247  and  _249
REMARK   85  A    between atoms: _249  and  _250
REMARK   86  A    between atoms: _253  and  _255
REMARK   87  A    between atoms: _255  and  _256
REMARK   88  A    between atoms: _259  and  _261
REMARK   89  A    between atoms: _261  and  _262
REMARK   90  A    between atoms: _261  and  _264
REMARK   91  A    between atoms: _264  and  _265
REMARK   92  A    between atoms: _268  and  _270
REMARK   93  A    between atoms: _270  and  _271
REMARK   94  A    between atoms: _274  and  _276
REMARK   95  A    between atoms: _276  and  _277
REMARK   96  A    between atoms: _276  and  _279
REMARK   97  A    between atoms: _282  and  _284
REMARK   98  A    between atoms: _284  and  _285
REMARK   99  A    between atoms: _284  and  _287
REMARK  100  A    between atoms: _287  and  _288
REMARK  101  A    between atoms: _291  and  _293
REMARK  102  A    between atoms: _293  and  _294
REMARK  103  A    between atoms: _296  and  _298
REMARK  104  A    between atoms: _298  and  _299
REMARK  105  A    between atoms: _298  and  _301
REMARK  106  A    between atoms: _301  and  _302
REMARK  107  A    between atoms: _304  and  _306
REMARK  108  A    between atoms: _306  and  _307
REMARK  109  A    between atoms: _306  and  _309
REMARK  110  A    between atoms: _309  and  _310
REMARK  111  A    between atoms: _313  and  _315
REMARK  112  A    between atoms: _315  and  _316
REMARK  113  A    between atoms: _315  and  _318
REMARK  114  A    between atoms: _318  and  _319
REMARK  115  A    between atoms: _322  and  _324
REMARK  116  A    between atoms: _324  and  _325
REMARK  117  A    between atoms: _324  and  _327
REMARK  118  A    between atoms: _327  and  _328
REMARK  119  A    between atoms: _334  and  _335
REMARK  120  A    between atoms: _341  and  _342
REMARK  121  A    between atoms: _347  and  _349
REMARK  122  A    between atoms: _349  and  _350
REMARK  123  A    between atoms: _349  and  _352
REMARK  124  A    between atoms: _352  and  _353
REMARK  125  A    between atoms: _356  and  _358
REMARK  126  A    between atoms: _358  and  _359
REMARK  127  A    between atoms: _358  and  _361
REMARK  128  A    between atoms: _361  and  _362
REMARK  129  A    between atoms: _367  and  _368
REMARK  130  A    between atoms: _370  and  _372
REMARK  131  A    between atoms: _372  and  _373
REMARK  132  A    between atoms: _372  and  _375
REMARK  133  A    between atoms: _375  and  _376
REMARK  134  A    between atoms: _378  and  _380
REMARK  135  A    between atoms: _380  and  _381
REMARK  136  A    between atoms: _380  and  _383
REMARK  137  A    between atoms: _386  and  _388
REMARK  138  A    between atoms: _388  and  _389
REMARK  139  A    between atoms: _388  and  _391
REMARK  140  A    between atoms: _391  and  _392
REMARK  141  A    between atoms: _402  and  _404
REMARK  142  A    between atoms: _404  and  _405
REMARK  143  A    between atoms: _404  and  _407
REMARK  144  A    between atoms: _407  and  _408
REMARK  145  A    between atoms: _413  and  _415
REMARK  146  A    between atoms: _415  and  _416
REMARK  147  A    between atoms: _415  and  _418
REMARK  148  A    between atoms: _418  and  _419
REMARK  149  A    between atoms: _419  and  _420
REMARK  150  A    between atoms: _420  and  _421
REMARK                            x       y       z     vdW  Elec       q    Type
REMARK                         _______ _______ _______ _____ _____    ______ ____
ROOT
ATOM      1  C   GLU A   1      38.493  22.895  -7.998  0.00  0.00    +0.238 C 
ATOM      2  N   HIS A   2      37.718  22.101  -7.294  0.00  0.00    -0.298 N 
ATOM      3  H   HIS A   2      37.734  21.082  -7.502  0.00  0.00    +0.150 HD
ATOM      4  O   GLU A   1      38.553  24.109  -7.701  0.00  0.00    -0.274 OA
ENDROOT
BRANCH   1   5
ATOM      5  CA  GLU A   1      39.416  22.231  -9.011  0.00  0.00    +0.145 C 
BRANCH   5   6
ATOM      6  N   GLU A   1      40.294  21.309  -8.256  0.00  0.00    -0.238 NA
ATOM      7  H   GLU A   1      39.948  20.345  -8.074  0.00  0.00    +0.142 HD
ENDBRANCH   5   6
BRANCH   5   8
ATOM      8  CB  GLU A   1      38.696  21.549 -10.158  0.00  0.00    +0.038 C 
BRANCH   8   9
ATOM      9  CG  GLU A   1      39.632  20.973 -11.224  0.00  0.00    +0.116 C 
BRANCH   9  10
ATOM     10  CD  GLU A   1      39.218  21.111 -12.654  0.00  0.00    +0.365 C 
ATOM     11  OE2 GLU A   1      38.239  20.333 -12.924  0.00  0.00    -0.246 OA
ATOM     12  OE1 GLU A   1      39.709  21.814 -13.486  0.00  0.00    -0.246 OA
ENDBRANCH   9  10
ENDBRANCH   8   9
ENDBRANCH   5   8
ENDBRANCH   1   5
BRANCH   2  13
ATOM     13  CA  HIS A   2      36.837  22.577  -6.236  0.00  0.00    +0.143 C 
BRANCH  13  14
ATOM     14  C   HIS A   2      37.655  22.838  -4.951  0.00  0.00    +0.227 C 
ATOM     15  O   HIS A   2      38.659  22.189  -4.637  0.00  0.00    -0.286 OA
ENDBRANCH  13  14
BRANCH  13  16
ATOM     16  CB  HIS A   2      35.730  21.529  -5.922  0.00  0.00    +0.075 C 
BRANCH  16  17
ATOM     17  CG  HIS A   2      34.790  21.317  -7.077  0.00  0.00    +0.082 A 
ATOM     18  CD2 HIS A   2      33.632  21.943  -7.352  0.00  0.00    +0.115 A 
ATOM     19  NE2 HIS A   2      33.114  21.393  -8.471  0.00  0.00    -0.221 NA
ATOM     20  CE1 HIS A   2      33.926  20.473  -8.903  0.00  0.00    +0.199 A 
ATOM     21  ND1 HIS A   2      34.968  20.401  -8.098  0.00  0.00    -0.227 NA
ENDBRANCH  16  17
ENDBRANCH  13  16
ENDBRANCH   2  13
TORSDOF 9
REMARK  Name = ../refined-set-2016/1azm/1azm_pocket.pdb
REMARK  150 active torsions:
REMARK  status: ('A' for Active; 'I' for Inactive)
REMARK    1  A    between atoms: _1  and  _3
REMARK    2  A    between atoms: _3  and  _4
REMARK    3  A    between atoms: _3  and  _6
REMARK    4  A    between atoms: _6  and  _7
REMARK    5  A    between atoms: _17  and  _19
REMARK    6  A    between atoms: _19  and  _20
REMARK    7  A    between atoms: _19  and  _22
REMARK    8  A    between atoms: _22  and  _23
REMARK    9  A    between atoms: _28  and  _29
REMARK   10  A    between atoms: _31  and  _33
REMARK   11  A    between atoms: _33  and  _34
REMARK   12  A    between atoms: _33  and  _36
REMARK   13  A    between atoms: _36  and  _37
REMARK   14  A    between atoms: _40  and  _41
REMARK   15  A    between atoms: _46  and  _48
REMARK   16  A    between atoms: _48  and  _49
REMARK   17  A    between atoms: _48  and  _51
REMARK   18  A    between atoms: _51  and  _52
REMARK   19  A    between atoms: _57  and  _59
REMARK   20  A    between atoms: _59  and  _60
REMARK   21  A    between atoms: _59  and  _62
REMARK   22  A    between atoms: _62  and  _63
REMARK   23  A    between atoms: _65  and  _67
REMARK   24  A    between atoms: _67  and  _68
REMARK   25  A    between atoms: _67  and  _70
REMARK   26  A    between atoms: _70  and  _71
REMARK   27  A    between atoms: _76  and  _78
REMARK   28  A    between atoms: _78  and  _79
REMARK   29  A    between atoms: _78  and  _81
REMARK   30  A    between atoms: _81  and  _82
REMARK   31  A    between atoms: _88  and  _90
REMARK   32  A    between atoms: _90  and  _91
REMARK   33  A    between atoms: _90  and  _93
REMARK   34  A    between atoms: _93  and  _94
REMARK   35  A    between atoms: _94  and  _95
REMARK   36  A    between atoms: _100  and  _102
REMARK   37  A    between atoms: _102  and  _103
REMARK   38  A    between atoms: _102  and  _105
REMARK   39  A    between atoms: _105  and  _106
REMARK   40  A    between atoms: _112  and  _114
REMARK   41  A    between atoms: _125  and  _128
REMARK   42  A    between atoms: _128  and  _129
REMARK   43  A    between atoms: _137  and  _138
REMARK   44  A    between atoms: _146  and  _148
REMARK   45  A    between atoms: _148  and  _149
REMARK   46  A    between atoms: _148  and  _151
REMARK   47  A    between atoms: _151  and  _152
REMARK   48  A    between atoms: _152  and  _153
REMARK   49  A    between atoms: _156  and  _158
REMARK   50  A    between atoms: _158  and  _159
REMARK   51  A    between atoms: _158  and  _161
REMARK   52  A    between atoms: _161  and  _162
REMARK   53  A    between atoms: _167  and  _169
REMARK   54  A    between atoms: _169  and  _170
REMARK   55  A    between atoms: _169  and  _172
REMARK   56  A    between atoms: _172  and  _173
REMARK   57  A    between atoms: _173  and  _174
REMARK   58  A    between atoms: _177  and  _179
REMARK   59  A    between atoms: _179  and  _180
REMARK   60  A    between atoms: _179  and  _182
REMARK   61  A    between atoms: _182  and  _183
REMARK   62  A    between atoms: _186  and  _188
REMARK   63  A    between atoms: _188  and  _189
REMARK   64  A    between atoms: _188  and  _191
REMARK   65  A    between atoms: _191  and  _192
REMARK   66  A    between atoms: _193  and  ZN_430
REMARK   67  A    between atoms: _197  and  _199
REMARK   68  A    between atoms: _199  and  _200
REMARK   69  A    between atoms: _199  and  _202
REMARK   70  A    between atoms: _205  and  _207
REMARK   71  A    between atoms: _207  and  _208
REMARK   72  A    between atoms: _211  and  _213
REMARK   73  A    between atoms: _213  and  _214
REMARK   74  A    between atoms: _213  and  _216
REMARK   75  A    between atoms: _216  and  _217
REMARK   76  A    between atoms: _222  and  _224
REMARK   77  A    between atoms: _224  and  _225
REMARK   78  A    between atoms: _224  and  _227
REMARK   79  A    between atoms: _227  and  _228
REMARK   80  A    between atoms: _238  and  _240
REMARK   81  A    between atoms: _240  and  _241
REMARK   82  A    between atoms: _240  and  _243
REMARK   83  A    between atoms: _243  and  _244
REMARK   84  A    between atoms: _247  and  _249
REMARK   85  A    between atoms: _249  and  _250
REMARK   86  A    between atoms: _253  and  _255
REMARK   87  A    between atoms: _255  and  _256
REMARK   88  A    between atoms: _259  and  _261
REMARK   89  A    between atoms: _261  and  _262
REMARK   90  A    between atoms: _261  and  _264
REMARK   91  A    between atoms: _264  and  _265
REMARK   92  A    between atoms: _268  and  _270
REMARK   93  A    between atoms: _270  and  _271
REMARK   94  A    between atoms: _274  and  _276
REMARK   95  A    between atoms: _276  and  _277
REMARK   96  A    between atoms: _276  and  _279
REMARK   97  A    between atoms: _282  and  _284
REMARK   98  A    between atoms: _284  and  _285
REMARK   99  A    between atoms: _284  and  _287
REMARK  100  A    between atoms: _287  and  _288
REMARK  101  A    between atoms: _291  and  _293
REMARK  102  A    between atoms: _293  and  _294
REMARK  103  A    between atoms: _296  and  _298
REMARK  104  A    between atoms: _298  and  _299
REMARK  105  A    between atoms: _298  and  _301
REMARK  106  A    between atoms: _301  and  _302
REMARK  107  A    between atoms: _304  and  _306
REMARK  108  A    between atoms: _306  and  _307
REMARK  109  A    between atoms: _306  and  _309
REMARK  110  A    between atoms: _309  and  _310
REMARK  111  A    between atoms: _313  and  _315
REMARK  112  A    between atoms: _315  and  _316
REMARK  113  A    between atoms: _315  and  _318
REMARK  114  A    between atoms: _318  and  _319
REMARK  115  A    between atoms: _322  and  _324
REMARK  116  A    between atoms: _324  and  _325
REMARK  117  A    between atoms: _324  and  _327
REMARK  118  A    between atoms: _327  and  _328
REMARK  119  A    between atoms: _334  and  _335
REMARK  120  A    between atoms: _341  and  _342
REMARK  121  A    between atoms: _347  and  _349
REMARK  122  A    between atoms: _349  and  _350
REMARK  123  A    between atoms: _349  and  _352
REMARK  124  A    between atoms: _352  and  _353
REMARK  125  A    between atoms: _356  and  _358
REMARK  126  A    between atoms: _358  and  _359
REMARK  127  A    between atoms: _358  and  _361
REMARK  128  A    between atoms: _361  and  _362
REMARK  129  A    between atoms: _367  and  _368
REMARK  130  A    between atoms: _370  and  _372
REMARK  131  A    between atoms: _372  and  _373
REMARK  132  A    between atoms: _372  and  _375
REMARK  133  A    between atoms: _375  and  _376
REMARK  134  A    between atoms: _378  and  _380
REMARK  135  A    between atoms: _380  and  _381
REMARK  136  A    between atoms: _380  and  _383
REMARK  137  A    between atoms: _386  and  _388
REMARK  138  A    between atoms: _388  and  _389
REMARK  139  A    between atoms: _388  and  _391
REMARK  140  A    between atoms: _391  and  _392
REMARK  141  A    between atoms: _402  and  _404
REMARK  142  A    between atoms: _404  and  _405
REMARK  143  A    between atoms: _404  and  _407
REMARK  144  A    between atoms: _407  and  _408
REMARK  145  A    between atoms: _413  and  _415
REMARK  146  A    between atoms: _415  and  _416
REMARK  147  A    between atoms: _415  and  _418
REMARK  148  A    between atoms: _418  and  _419
REMARK  149  A    between atoms: _419  and  _420
REMARK  150  A    between atoms: _420  and  _421
REMARK                            x       y       z     vdW  Elec       q    Type
REMARK                         _______ _______ _______ _____ _____    ______ ____
ROOT
ATOM      1  C   LEU A   1      27.121  11.752 -25.335  0.00  0.00    +0.238 C 
ATOM      2  O   LEU A   1      26.936  12.826 -24.720  0.00  0.00    -0.274 OA
ATOM      3  N   ALA A   2      27.313  11.702 -26.635  0.00  0.00    -0.298 N 
ATOM      4  H   ALA A   2      27.434  10.762 -27.064  0.00  0.00    +0.150 HD
ENDROOT
BRANCH   3   5
ATOM      5  CA  ALA A   2      27.371  12.867 -27.531  0.00  0.00    +0.137 C 
ATOM      6  CB  ALA A   2      27.548  12.378 -28.983  0.00  0.00    +0.030 C 
BRANCH   5   7
ATOM      7  C   ALA A   2      26.146  13.769 -27.405  0.00  0.00    +0.227 C 
ATOM      8  O   ALA A   2      26.253  15.022 -27.300  0.00  0.00    -0.286 OA
ENDBRANCH   5   7
ENDBRANCH   3   5
BRANCH   1   9
ATOM      9  CA  LEU A   1      27.135  10.393 -24.609  0.00  0.00    +0.145 C 
BRANCH   9  10
ATOM     10  N   LEU A   1      26.438   9.362 -25.414  0.00  0.00    -0.238 NA
ATOM     11  H   LEU A   1      26.948   8.524 -25.760  0.00  0.00    +0.142 HD
ENDBRANCH   9  10
BRANCH   9  12
ATOM     12  CB  LEU A   1      28.556   9.897 -24.268  0.00  0.00    +0.026 C 
BRANCH  12  13
ATOM     13  CG  LEU A   1      29.496  11.012 -23.786  0.00  0.00    +0.002 C 
ATOM     14  CD2 LEU A   1      29.067  11.560 -22.423  0.00  0.00    +0.000 C 
ATOM     15  CD1 LEU A   1      30.916  10.468 -23.691  0.00  0.00    +0.000 C 
ENDBRANCH  12  13
ENDBRANCH   9  12
ENDBRANCH   1   9
TORSDOF 6
REMARK  Name = ../refined-set-2016/1azm/1azm_pocket.pdb
REMARK  150 active torsions:
REMARK  status: ('A' for Active; 'I' for Inactive)
REMARK    1  A    between atoms: _1  and  _3
REMARK    2  A    between atoms: _3  and  _4
REMARK    3  A    between atoms: _3  and  _6
REMARK    4  A    between atoms: _6  and  _7
REMARK    5  A    between atoms: _17  and  _19
REMARK    6  A    between atoms: _19  and  _20
REMARK    7  A    between atoms: _19  and  _22
REMARK    8  A    between atoms: _22  and  _23
REMARK    9  A    between atoms: _28  and  _29
REMARK   10  A    between atoms: _31  and  _33
REMARK   11  A    between atoms: _33  and  _34
REMARK   12  A    between atoms: _33  and  _36
REMARK   13  A    between atoms: _36  and  _37
REMARK   14  A    between atoms: _40  and  _41
REMARK   15  A    between atoms: _46  and  _48
REMARK   16  A    between atoms: _48  and  _49
REMARK   17  A    between atoms: _48  and  _51
REMARK   18  A    between atoms: _51  and  _52
REMARK   19  A    between atoms: _57  and  _59
REMARK   20  A    between atoms: _59  and  _60
REMARK   21  A    between atoms: _59  and  _62
REMARK   22  A    between atoms: _62  and  _63
REMARK   23  A    between atoms: _65  and  _67
REMARK   24  A    between atoms: _67  and  _68
REMARK   25  A    between atoms: _67  and  _70
REMARK   26  A    between atoms: _70  and  _71
REMARK   27  A    between atoms: _76  and  _78
REMARK   28  A    between atoms: _78  and  _79
REMARK   29  A    between atoms: _78  and  _81
REMARK   30  A    between atoms: _81  and  _82
REMARK   31  A    between atoms: _88  and  _90
REMARK   32  A    between atoms: _90  and  _91
REMARK   33  A    between atoms: _90  and  _93
REMARK   34  A    between atoms: _93  and  _94
REMARK   35  A    between atoms: _94  and  _95
REMARK   36  A    between atoms: _100  and  _102
REMARK   37  A    between atoms: _102  and  _103
REMARK   38  A    between atoms: _102  and  _105
REMARK   39  A    between atoms: _105  and  _106
REMARK   40  A    between atoms: _112  and  _114
REMARK   41  A    between atoms: _125  and  _128
REMARK   42  A    between atoms: _128  and  _129
REMARK   43  A    between atoms: _137  and  _138
REMARK   44  A    between atoms: _146  and  _148
REMARK   45  A    between atoms: _148  and  _149
REMARK   46  A    between atoms: _148  and  _151
REMARK   47  A    between atoms: _151  and  _152
REMARK   48  A    between atoms: _152  and  _153
REMARK   49  A    between atoms: _156  and  _158
REMARK   50  A    between atoms: _158  and  _159
REMARK   51  A    between atoms: _158  and  _161
REMARK   52  A    between atoms: _161  and  _162
REMARK   53  A    between atoms: _167  and  _169
REMARK   54  A    between atoms: _169  and  _170
REMARK   55  A    between atoms: _169  and  _172
REMARK   56  A    between atoms: _172  and  _173
REMARK   57  A    between atoms: _173  and  _174
REMARK   58  A    between atoms: _177  and  _179
REMARK   59  A    between atoms: _179  and  _180
REMARK   60  A    between atoms: _179  and  _182
REMARK   61  A    between atoms: _182  and  _183
REMARK   62  A    between atoms: _186  and  _188
REMARK   63  A    between atoms: _188  and  _189
REMARK   64  A    between atoms: _188  and  _191
REMARK   65  A    between atoms: _191  and  _192
REMARK   66  A    between atoms: _193  and  ZN_430
REMARK   67  A    between atoms: _197  and  _199
REMARK   68  A    between atoms: _199  and  _200
REMARK   69  A    between atoms: _199  and  _202
REMARK   70  A    between atoms: _205  and  _207
REMARK   71  A    between atoms: _207  and  _208
REMARK   72  A    between atoms: _211  and  _213
REMARK   73  A    between atoms: _213  and  _214
REMARK   74  A    between atoms: _213  and  _216
REMARK   75  A    between atoms: _216  and  _217
REMARK   76  A    between atoms: _222  and  _224
REMARK   77  A    between atoms: _224  and  _225
REMARK   78  A    between atoms: _224  and  _227
REMARK   79  A    between atoms: _227  and  _228
REMARK   80  A    between atoms: _238  and  _240
REMARK   81  A    between atoms: _240  and  _241
REMARK   82  A    between atoms: _240  and  _243
REMARK   83  A    between atoms: _243  and  _244
REMARK   84  A    between atoms: _247  and  _249
REMARK   85  A    between atoms: _249  and  _250
REMARK   86  A    between atoms: _253  and  _255
REMARK   87  A    between atoms: _255  and  _256
REMARK   88  A    between atoms: _259  and  _261
REMARK   89  A    between atoms: _261  and  _262
REMARK   90  A    between atoms: _261  and  _264
REMARK   91  A    between atoms: _264  and  _265
REMARK   92  A    between atoms: _268  and  _270
REMARK   93  A    between atoms: _270  and  _271
REMARK   94  A    between atoms: _274  and  _276
REMARK   95  A    between atoms: _276  and  _277
REMARK   96  A    between atoms: _276  and  _279
REMARK   97  A    between atoms: _282  and  _284
REMARK   98  A    between atoms: _284  and  _285
REMARK   99  A    between atoms: _284  and  _287
REMARK  100  A    between atoms: _287  and  _288
REMARK  101  A    between atoms: _291  and  _293
REMARK  102  A    between atoms: _293  and  _294
REMARK  103  A    between atoms: _296  and  _298
REMARK  104  A    between atoms: _298  and  _299
REMARK  105  A    between atoms: _298  and  _301
REMARK  106  A    between atoms: _301  and  _302
REMARK  107  A    between atoms: _304  and  _306
REMARK  108  A    between atoms: _306  and  _307
REMARK  109  A    between atoms: _306  and  _309
REMARK  110  A    between atoms: _309  and  _310
REMARK  111  A    between atoms: _313  and  _315
REMARK  112  A    between atoms: _315  and  _316
REMARK  113  A    between atoms: _315  and  _318
REMARK  114  A    between atoms: _318  and  _319
REMARK  115  A    between atoms: _322  and  _324
REMARK  116  A    between atoms: _324  and  _325
REMARK  117  A    between atoms: _324  and  _327
REMARK  118  A    between atoms: _327  and  _328
REMARK  119  A    between atoms: _334  and  _335
REMARK  120  A    between atoms: _341  and  _342
REMARK  121  A    between atoms: _347  and  _349
REMARK  122  A    between atoms: _349  and  _350
REMARK  123  A    between atoms: _349  and  _352
REMARK  124  A    between atoms: _352  and  _353
REMARK  125  A    between atoms: _356  and  _358
REMARK  126  A    between atoms: _358  and  _359
REMARK  127  A    between atoms: _358  and  _361
REMARK  128  A    between atoms: _361  and  _362
REMARK  129  A    between atoms: _367  and  _368
REMARK  130  A    between atoms: _370  and  _372
REMARK  131  A    between atoms: _372  and  _373
REMARK  132  A    between atoms: _372  and  _375
REMARK  133  A    between atoms: _375  and  _376
REMARK  134  A    between atoms: _378  and  _380
REMARK  135  A    between atoms: _380  and  _381
REMARK  136  A    between atoms: _380  and  _383
REMARK  137  A    between atoms: _386  and  _388
REMARK  138  A    between atoms: _388  and  _389
REMARK  139  A    between atoms: _388  and  _391
REMARK  140  A    between atoms: _391  and  _392
REMARK  141  A    between atoms: _402  and  _404
REMARK  142  A    between atoms: _404  and  _405
REMARK  143  A    between atoms: _404  and  _407
REMARK  144  A    between atoms: _407  and  _408
REMARK  145  A    between atoms: _413  and  _415
REMARK  146  A    between atoms: _415  and  _416
REMARK  147  A    between atoms: _415  and  _418
REMARK  148  A    between atoms: _418  and  _419
REMARK  149  A    between atoms: _419  and  _420
REMARK  150  A    between atoms: _420  and  _421
REMARK                            x       y       z     vdW  Elec       q    Type
REMARK                         _______ _______ _______ _____ _____    ______ ____
ROOT
ATOM      1  CA  ALA A   1      26.746  16.062 -23.250  0.00  0.00    +0.133 C 
ATOM      2  CB  ALA A   1      27.954  15.790 -24.134  0.00  0.00    +0.027 C 
ENDROOT
BRANCH   1   3
ATOM      3  N   ALA A   1      25.706  15.112 -23.554  0.00  0.00    -0.239 NA
ATOM      4  H   ALA A   1      25.914  14.452 -24.330  0.00  0.00    +0.142 HD
ENDBRANCH   1   3
BRANCH   1   5
ATOM      5  C   ALA A   1      26.406  17.518 -23.222  0.00  0.00    +0.224 C 
ATOM      6  O   ALA A   1      27.050  18.307 -22.466  0.00  0.00    -0.287 OA
ENDBRANCH   1   5
TORSDOF 2
REMARK  Name = ../refined-set-2016/1azm/1azm_pocket.pdb
REMARK  150 active torsions:
REMARK  status: ('A' for Active; 'I' for Inactive)
REMARK    1  A    between atoms: _1  and  _3
REMARK    2  A    between atoms: _3  and  _4
REMARK    3  A    between atoms: _3  and  _6
REMARK    4  A    between atoms: _6  and  _7
REMARK    5  A    between atoms: _17  and  _19
REMARK    6  A    between atoms: _19  and  _20
REMARK    7  A    between atoms: _19  and  _22
REMARK    8  A    between atoms: _22  and  _23
REMARK    9  A    between atoms: _28  and  _29
REMARK   10  A    between atoms: _31  and  _33
REMARK   11  A    between atoms: _33  and  _34
REMARK   12  A    between atoms: _33  and  _36
REMARK   13  A    between atoms: _36  and  _37
REMARK   14  A    between atoms: _40  and  _41
REMARK   15  A    between atoms: _46  and  _48
REMARK   16  A    between atoms: _48  and  _49
REMARK   17  A    between atoms: _48  and  _51
REMARK   18  A    between atoms: _51  and  _52
REMARK   19  A    between atoms: _57  and  _59
REMARK   20  A    between atoms: _59  and  _60
REMARK   21  A    between atoms: _59  and  _62
REMARK   22  A    between atoms: _62  and  _63
REMARK   23  A    between atoms: _65  and  _67
REMARK   24  A    between atoms: _67  and  _68
REMARK   25  A    between atoms: _67  and  _70
REMARK   26  A    between atoms: _70  and  _71
REMARK   27  A    between atoms: _76  and  _78
REMARK   28  A    between atoms: _78  and  _79
REMARK   29  A    between atoms: _78  and  _81
REMARK   30  A    between atoms: _81  and  _82
REMARK   31  A    between atoms: _88  and  _90
REMARK   32  A    between atoms: _90  and  _91
REMARK   33  A    between atoms: _90  and  _93
REMARK   34  A    between atoms: _93  and  _94
REMARK   35  A    between atoms: _94  and  _95
REMARK   36  A    between atoms: _100  and  _102
REMARK   37  A    between atoms: _102  and  _103
REMARK   38  A    between atoms: _102  and  _105
REMARK   39  A    between atoms: _105  and  _106
REMARK   40  A    between atoms: _112  and  _114
REMARK   41  A    between atoms: _125  and  _128
REMARK   42  A    between atoms: _128  and  _129
REMARK   43  A    between atoms: _137  and  _138
REMARK   44  A    between atoms: _146  and  _148
REMARK   45  A    between atoms: _148  and  _149
REMARK   46  A    between atoms: _148  and  _151
REMARK   47  A    between atoms: _151  and  _152
REMARK   48  A    between atoms: _152  and  _153
REMARK   49  A    between atoms: _156  and  _158
REMARK   50  A    between atoms: _158  and  _159
REMARK   51  A    between atoms: _158  and  _161
REMARK   52  A    between atoms: _161  and  _162
REMARK   53  A    between atoms: _167  and  _169
REMARK   54  A    between atoms: _169  and  _170
REMARK   55  A    between atoms: _169  and  _172
REMARK   56  A    between atoms: _172  and  _173
REMARK   57  A    between atoms: _173  and  _174
REMARK   58  A    between atoms: _177  and  _179
REMARK   59  A    between atoms: _179  and  _180
REMARK   60  A    between atoms: _179  and  _182
REMARK   61  A    between atoms: _182  and  _183
REMARK   62  A    between atoms: _186  and  _188
REMARK   63  A    between atoms: _188  and  _189
REMARK   64  A    between atoms: _188  and  _191
REMARK   65  A    between atoms: _191  and  _192
REMARK   66  A    between atoms: _193  and  ZN_430
REMARK   67  A    between atoms: _197  and  _199
REMARK   68  A    between atoms: _199  and  _200
REMARK   69  A    between atoms: _199  and  _202
REMARK   70  A    between atoms: _205  and  _207
REMARK   71  A    between atoms: _207  and  _208
REMARK   72  A    between atoms: _211  and  _213
REMARK   73  A    between atoms: _213  and  _214
REMARK   74  A    between atoms: _213  and  _216
REMARK   75  A    between atoms: _216  and  _217
REMARK   76  A    between atoms: _222  and  _224
REMARK   77  A    between atoms: _224  and  _225
REMARK   78  A    between atoms: _224  and  _227
REMARK   79  A    between atoms: _227  and  _228
REMARK   80  A    between atoms: _238  and  _240
REMARK   81  A    between atoms: _240  and  _241
REMARK   82  A    between atoms: _240  and  _243
REMARK   83  A    between atoms: _243  and  _244
REMARK   84  A    between atoms: _247  and  _249
REMARK   85  A    between atoms: _249  and  _250
REMARK   86  A    between atoms: _253  and  _255
REMARK   87  A    between atoms: _255  and  _256
REMARK   88  A    between atoms: _259  and  _261
REMARK   89  A    between atoms: _261  and  _262
REMARK   90  A    between atoms: _261  and  _264
REMARK   91  A    between atoms: _264  and  _265
REMARK   92  A    between atoms: _268  and  _270
REMARK   93  A    between atoms: _270  and  _271
REMARK   94  A    between atoms: _274  and  _276
REMARK   95  A    between atoms: _276  and  _277
REMARK   96  A    between atoms: _276  and  _279
REMARK   97  A    between atoms: _282  and  _284
REMARK   98  A    between atoms: _284  and  _285
REMARK   99  A    between atoms: _284  and  _287
REMARK  100  A    between atoms: _287  and  _288
REMARK  101  A    between atoms: _291  and  _293
REMARK  102  A    between atoms: _293  and  _294
REMARK  103  A    between atoms: _296  and  _298
REMARK  104  A    between atoms: _298  and  _299
REMARK  105  A    between atoms: _298  and  _301
REMARK  106  A    between atoms: _301  and  _302
REMARK  107  A    between atoms: _304  and  _306
REMARK  108  A    between atoms: _306  and  _307
REMARK  109  A    between atoms: _306  and  _309
REMARK  110  A    between atoms: _309  and  _310
REMARK  111  A    between atoms: _313  and  _315
REMARK  112  A    between atoms: _315  and  _316
REMARK  113  A    between atoms: _315  and  _318
REMARK  114  A    between atoms: _318  and  _319
REMARK  115  A    between atoms: _322  and  _324
REMARK  116  A    between atoms: _324  and  _325
REMARK  117  A    between atoms: _324  and  _327
REMARK  118  A    between atoms: _327  and  _328
REMARK  119  A    between atoms: _334  and  _335
REMARK  120  A    between atoms: _341  and  _342
REMARK  121  A    between atoms: _347  and  _349
REMARK  122  A    between atoms: _349  and  _350
REMARK  123  A    between atoms: _349  and  _352
REMARK  124  A    between atoms: _352  and  _353
REMARK  125  A    between atoms: _356  and  _358
REMARK  126  A    between atoms: _358  and  _359
REMARK  127  A    between atoms: _358  and  _361
REMARK  128  A    between atoms: _361  and  _362
REMARK  129  A    between atoms: _367  and  _368
REMARK  130  A    between atoms: _370  and  _372
REMARK  131  A    between atoms: _372  and  _373
REMARK  132  A    between atoms: _372  and  _375
REMARK  133  A    between atoms: _375  and  _376
REMARK  134  A    between atoms: _378  and  _380
REMARK  135  A    between atoms: _380  and  _381
REMARK  136  A    between atoms: _380  and  _383
REMARK  137  A    between atoms: _386  and  _388
REMARK  138  A    between atoms: _388  and  _389
REMARK  139  A    between atoms: _388  and  _391
REMARK  140  A    between atoms: _391  and  _392
REMARK  141  A    between atoms: _402  and  _404
REMARK  142  A    between atoms: _404  and  _405
REMARK  143  A    between atoms: _404  and  _407
REMARK  144  A    between atoms: _407  and  _408
REMARK  145  A    between atoms: _413  and  _415
REMARK  146  A    between atoms: _415  and  _416
REMARK  147  A    between atoms: _415  and  _418
REMARK  148  A    between atoms: _418  and  _419
REMARK  149  A    between atoms: _419  and  _420
REMARK  150  A    between atoms: _420  and  _421
REMARK                            x       y       z     vdW  Elec       q    Type
REMARK                         _______ _______ _______ _____ _____    ______ ____
ROOT
ATOM      1  C   ALA A   2      28.215  13.065 -13.164  0.00  0.00    +0.241 C 
ATOM      2  N   VAL A   3      28.869  13.967 -12.436  0.00  0.00    -0.297 N 
ATOM      3  H   VAL A   3      28.400  14.837 -12.112  0.00  0.00    +0.150 HD
ATOM      4  O   ALA A   2      28.723  12.029 -13.572  0.00  0.00    -0.273 OA
ENDROOT
BRANCH   1   5
ATOM      5  CA  ALA A   2      26.717  13.302 -13.478  0.00  0.00    +0.149 C 
ATOM      6  CB  ALA A   2      25.888  12.256 -12.760  0.00  0.00    +0.031 C 
BRANCH   5   8
ATOM      7  C   LEU A   1      25.962  14.315 -15.576  0.00  0.00    +0.238 C 
ATOM      8  N   ALA A   2      26.534  13.291 -14.936  0.00  0.00    -0.297 N 
ATOM      9  H   ALA A   2      26.857  12.467 -15.482  0.00  0.00    +0.150 HD
ATOM     10  O   LEU A   1      25.550  15.294 -15.016  0.00  0.00    -0.274 OA
BRANCH   7  11
ATOM     11  CA  LEU A   1      25.995  14.207 -17.093  0.00  0.00    +0.145 C 
BRANCH  11  12
ATOM     12  N   LEU A   1      24.887  14.816 -17.829  0.00  0.00    -0.238 NA
ATOM     13  H   LEU A   1      24.698  15.827 -17.674  0.00  0.00    +0.142 HD
ENDBRANCH  11  12
BRANCH  11  14
ATOM     14  CB  LEU A   1      27.264  14.974 -17.605  0.00  0.00    +0.026 C 
BRANCH  14  15
ATOM     15  CG  LEU A   1      27.531  15.062 -19.093  0.00  0.00    +0.002 C 
ATOM     16  CD2 LEU A   1      28.805  15.874 -19.328  0.00  0.00    +0.000 C 
ATOM     17  CD1 LEU A   1      27.700  13.678 -19.721  0.00  0.00    +0.000 C 
ENDBRANCH  14  15
ENDBRANCH  11  14
ENDBRANCH   7  11
ENDBRANCH   5   8
ENDBRANCH   1   5
BRANCH   2  18
ATOM     18  CA  VAL A   3      30.283  13.693 -12.103  0.00  0.00    +0.149 C 
BRANCH  18  19
ATOM     19  C   VAL A   3      30.522  13.607 -10.578  0.00  0.00    +0.241 C 
ATOM     20  O   VAL A   3      30.103  14.540  -9.900  0.00  0.00    -0.273 OA
ATOM     21  N   ILE A   4      31.207  12.553 -10.151  0.00  0.00    -0.298 N 
ATOM     22  H   ILE A   4      31.492  11.801 -10.811  0.00  0.00    +0.150 HD
BRANCH  21  23
ATOM     23  CA  ILE A   4      31.561  12.471  -8.691  0.00  0.00    +0.137 C 
BRANCH  23  24
ATOM     24  CB  ILE A   4      31.519  11.043  -8.131  0.00  0.00    +0.026 C 
ATOM     25  CG2 ILE A   4      32.149  10.905  -6.710  0.00  0.00    +0.002 C 
BRANCH  24  26
ATOM     26  CG1 ILE A   4      30.089  10.470  -8.258  0.00  0.00    +0.002 C 
ATOM     27  CD1 ILE A   4      30.018   8.905  -8.155  0.00  0.00    +0.000 C 
ENDBRANCH  24  26
ENDBRANCH  23  24
BRANCH  23  28
ATOM     28  C   ILE A   4      32.981  13.057  -8.572  0.00  0.00    +0.227 C 
ATOM     29  O   ILE A   4      33.822  12.605  -9.354  0.00  0.00    -0.286 OA
ENDBRANCH  23  28
ENDBRANCH  21  23
ENDBRANCH  18  19
BRANCH  18  30
ATOM     30  CB  VAL A   3      31.253  14.697 -12.769  0.00  0.00    +0.027 C 
ATOM     31  CG2 VAL A   3      32.725  14.315 -12.499  0.00  0.00    +0.002 C 
ATOM     32  CG1 VAL A   3      31.044  14.742 -14.277  0.00  0.00    +0.002 C 
ENDBRANCH  18  30
ENDBRANCH   2  18
TORSDOF 13
REMARK  Name = ../refined-set-2016/1azm/1azm_pocket.pdb
REMARK  150 active torsions:
REMARK  status: ('A' for Active; 'I' for Inactive)
REMARK    1  A    between atoms: _1  and  _3
REMARK    2  A    between atoms: _3  and  _4
REMARK    3  A    between atoms: _3  and  _6
REMARK    4  A    between atoms: _6  and  _7
REMARK    5  A    between atoms: _17  and  _19
REMARK    6  A    between atoms: _19  and  _20
REMARK    7  A    between atoms: _19  and  _22
REMARK    8  A    between atoms: _22  and  _23
REMARK    9  A    between atoms: _28  and  _29
REMARK   10  A    between atoms: _31  and  _33
REMARK   11  A    between atoms: _33  and  _34
REMARK   12  A    between atoms: _33  and  _36
REMARK   13  A    between atoms: _36  and  _37
REMARK   14  A    between atoms: _40  and  _41
REMARK   15  A    between atoms: _46  and  _48
REMARK   16  A    between atoms: _48  and  _49
REMARK   17  A    between atoms: _48  and  _51
REMARK   18  A    between atoms: _51  and  _52
REMARK   19  A    between atoms: _57  and  _59
REMARK   20  A    between atoms: _59  and  _60
REMARK   21  A    between atoms: _59  and  _62
REMARK   22  A    between atoms: _62  and  _63
REMARK   23  A    between atoms: _65  and  _67
REMARK   24  A    between atoms: _67  and  _68
REMARK   25  A    between atoms: _67  and  _70
REMARK   26  A    between atoms: _70  and  _71
REMARK   27  A    between atoms: _76  and  _78
REMARK   28  A    between atoms: _78  and  _79
REMARK   29  A    between atoms: _78  and  _81
REMARK   30  A    between atoms: _81  and  _82
REMARK   31  A    between atoms: _88  and  _90
REMARK   32  A    between atoms: _90  and  _91
REMARK   33  A    between atoms: _90  and  _93
REMARK   34  A    between atoms: _93  and  _94
REMARK   35  A    between atoms: _94  and  _95
REMARK   36  A    between atoms: _100  and  _102
REMARK   37  A    between atoms: _102  and  _103
REMARK   38  A    between atoms: _102  and  _105
REMARK   39  A    between atoms: _105  and  _106
REMARK   40  A    between atoms: _112  and  _114
REMARK   41  A    between atoms: _125  and  _128
REMARK   42  A    between atoms: _128  and  _129
REMARK   43  A    between atoms: _137  and  _138
REMARK   44  A    between atoms: _146  and  _148
REMARK   45  A    between atoms: _148  and  _149
REMARK   46  A    between atoms: _148  and  _151
REMARK   47  A    between atoms: _151  and  _152
REMARK   48  A    between atoms: _152  and  _153
REMARK   49  A    between atoms: _156  and  _158
REMARK   50  A    between atoms: _158  and  _159
REMARK   51  A    between atoms: _158  and  _161
REMARK   52  A    between atoms: _161  and  _162
REMARK   53  A    between atoms: _167  and  _169
REMARK   54  A    between atoms: _169  and  _170
REMARK   55  A    between atoms: _169  and  _172
REMARK   56  A    between atoms: _172  and  _173
REMARK   57  A    between atoms: _173  and  _174
REMARK   58  A    between atoms: _177  and  _179
REMARK   59  A    between atoms: _179  and  _180
REMARK   60  A    between atoms: _179  and  _182
REMARK   61  A    between atoms: _182  and  _183
REMARK   62  A    between atoms: _186  and  _188
REMARK   63  A    between atoms: _188  and  _189
REMARK   64  A    between atoms: _188  and  _191
REMARK   65  A    between atoms: _191  and  _192
REMARK   66  A    between atoms: _193  and  ZN_430
REMARK   67  A    between atoms: _197  and  _199
REMARK   68  A    between atoms: _199  and  _200
REMARK   69  A    between atoms: _199  and  _202
REMARK   70  A    between atoms: _205  and  _207
REMARK   71  A    between atoms: _207  and  _208
REMARK   72  A    between atoms: _211  and  _213
REMARK   73  A    between atoms: _213  and  _214
REMARK   74  A    between atoms: _213  and  _216
REMARK   75  A    between atoms: _216  and  _217
REMARK   76  A    between atoms: _222  and  _224
REMARK   77  A    between atoms: _224  and  _225
REMARK   78  A    between atoms: _224  and  _227
REMARK   79  A    between atoms: _227  and  _228
REMARK   80  A    between atoms: _238  and  _240
REMARK   81  A    between atoms: _240  and  _241
REMARK   82  A    between atoms: _240  and  _243
REMARK   83  A    between atoms: _243  and  _244
REMARK   84  A    between atoms: _247  and  _249
REMARK   85  A    between atoms: _249  and  _250
REMARK   86  A    between atoms: _253  and  _255
REMARK   87  A    between atoms: _255  and  _256
REMARK   88  A    between atoms: _259  and  _261
REMARK   89  A    between atoms: _261  and  _262
REMARK   90  A    between atoms: _261  and  _264
REMARK   91  A    between atoms: _264  and  _265
REMARK   92  A    between atoms: _268  and  _270
REMARK   93  A    between atoms: _270  and  _271
REMARK   94  A    between atoms: _274  and  _276
REMARK   95  A    between atoms: _276  and  _277
REMARK   96  A    between atoms: _276  and  _279
REMARK   97  A    between atoms: _282  and  _284
REMARK   98  A    between atoms: _284  and  _285
REMARK   99  A    between atoms: _284  and  _287
REMARK  100  A    between atoms: _287  and  _288
REMARK  101  A    between atoms: _291  and  _293
REMARK  102  A    between atoms: _293  and  _294
REMARK  103  A    between atoms: _296  and  _298
REMARK  104  A    between atoms: _298  and  _299
REMARK  105  A    between atoms: _298  and  _301
REMARK  106  A    between atoms: _301  and  _302
REMARK  107  A    between atoms: _304  and  _306
REMARK  108  A    between atoms: _306  and  _307
REMARK  109  A    between atoms: _306  and  _309
REMARK  110  A    between atoms: _309  and  _310
REMARK  111  A    between atoms: _313  and  _315
REMARK  112  A    between atoms: _315  and  _316
REMARK  113  A    between atoms: _315  and  _318
REMARK  114  A    between atoms: _318  and  _319
REMARK  115  A    between atoms: _322  and  _324
REMARK  116  A    between atoms: _324  and  _325
REMARK  117  A    between atoms: _324  and  _327
REMARK  118  A    between atoms: _327  and  _328
REMARK  119  A    between atoms: _334  and  _335
REMARK  120  A    between atoms: _341  and  _342
REMARK  121  A    between atoms: _347  and  _349
REMARK  122  A    between atoms: _349  and  _350
REMARK  123  A    between atoms: _349  and  _352
REMARK  124  A    between atoms: _352  and  _353
REMARK  125  A    between atoms: _356  and  _358
REMARK  126  A    between atoms: _358  and  _359
REMARK  127  A    between atoms: _358  and  _361
REMARK  128  A    between atoms: _361  and  _362
REMARK  129  A    between atoms: _367  and  _368
REMARK  130  A    between atoms: _370  and  _372
REMARK  131  A    between atoms: _372  and  _373
REMARK  132  A    between atoms: _372  and  _375
REMARK  133  A    between atoms: _375  and  _376
REMARK  134  A    between atoms: _378  and  _380
REMARK  135  A    between atoms: _380  and  _381
REMARK  136  A    between atoms: _380  and  _383
REMARK  137  A    between atoms: _386  and  _388
REMARK  138  A    between atoms: _388  and  _389
REMARK  139  A    between atoms: _388  and  _391
REMARK  140  A    between atoms: _391  and  _392
REMARK  141  A    between atoms: _402  and  _404
REMARK  142  A    between atoms: _404  and  _405
REMARK  143  A    between atoms: _404  and  _407
REMARK  144  A    between atoms: _407  and  _408
REMARK  145  A    between atoms: _413  and  _415
REMARK  146  A    between atoms: _415  and  _416
REMARK  147  A    between atoms: _415  and  _418
REMARK  148  A    between atoms: _418  and  _419
REMARK  149  A    between atoms: _419  and  _420
REMARK  150  A    between atoms: _420  and  _421
REMARK                            x       y       z     vdW  Elec       q    Type
REMARK                         _______ _______ _______ _____ _____    ______ ____
ROOT
ATOM      1  CA  HIS A   5      37.263  22.469 -19.675  0.00  0.00    +0.155 C 
ENDROOT
BRANCH   1   2
ATOM      2  C   HIS A   5      36.414  22.456 -20.930  0.00  0.00    +0.244 C 
ATOM      3  O   HIS A   5      35.267  21.938 -20.963  0.00  0.00    -0.273 OA
ATOM      4  N   PRO A   6      36.916  23.129 -21.988  0.00  0.00    -0.272 N 
ATOM      5  CD  PRO A   6      38.185  23.829 -22.064  0.00  0.00    +0.094 C 
ATOM      6  CG  PRO A   6      37.951  24.771 -23.274  0.00  0.00    +0.024 C 
ATOM      7  CB  PRO A   6      37.176  23.874 -24.235  0.00  0.00    +0.031 C 
ATOM      8  CA  PRO A   6      36.181  23.232 -23.259  0.00  0.00    +0.152 C 
BRANCH   8   9
ATOM      9  C   PRO A   6      35.671  21.907 -23.740  0.00  0.00    +0.244 C 
ATOM     10  O   PRO A   6      36.296  20.831 -23.573  0.00  0.00    -0.273 OA
ATOM     11  N   PRO A   7      34.477  21.874 -24.308  0.00  0.00    -0.272 N 
ATOM     12  CA  PRO A   7      33.527  22.935 -24.573  0.00  0.00    +0.152 C 
ATOM     13  CB  PRO A   7      32.624  22.359 -25.671  0.00  0.00    +0.031 C 
ATOM     14  CG  PRO A   7      32.626  20.888 -25.400  0.00  0.00    +0.024 C 
ATOM     15  CD  PRO A   7      33.940  20.523 -24.714  0.00  0.00    +0.094 C 
BRANCH  12  16
ATOM     16  C   PRO A   7      32.744  23.548 -23.434  0.00  0.00    +0.241 C 
ATOM     17  N   LEU A   8      32.992  23.228 -22.185  0.00  0.00    -0.297 N 
ATOM     18  H   LEU A   8      33.688  22.477 -22.002  0.00  0.00    +0.150 HD
ATOM     19  O   PRO A   7      31.833  24.398 -23.695  0.00  0.00    -0.273 OA
BRANCH  17  20
ATOM     20  CA  LEU A   8      32.350  23.862 -21.037  0.00  0.00    +0.149 C 
BRANCH  20  21
ATOM     21  C   LEU A   8      30.816  23.870 -20.949  0.00  0.00    +0.241 C 
ATOM     22  O   LEU A   8      30.246  24.824 -20.349  0.00  0.00    -0.273 OA
ATOM     23  N   TYR A   9      30.171  22.872 -21.526  0.00  0.00    -0.298 N 
ATOM     24  H   TYR A   9      30.725  22.154 -22.036  0.00  0.00    +0.150 HD
BRANCH  23  25
ATOM     25  CA  TYR A   9      28.690  22.725 -21.482  0.00  0.00    +0.141 C 
BRANCH  25  26
ATOM     26  C   TYR A   9      28.211  22.732 -20.019  0.00  0.00    +0.227 C 
ATOM     27  O   TYR A   9      28.826  22.145 -19.139  0.00  0.00    -0.286 OA
ENDBRANCH  25  26
BRANCH  25  28
ATOM     28  CB  TYR A   9      28.274  21.366 -22.071  0.00  0.00    +0.054 C 
BRANCH  28  29
ATOM     29  CG  TYR A   9      28.566  21.224 -23.556  0.00  0.00    -0.020 A 
ATOM     30  CD2 TYR A   9      28.966  19.985 -24.090  0.00  0.00    -0.001 A 
ATOM     31  CE2 TYR A   9      29.190  19.847 -25.470  0.00  0.00    +0.036 A 
ATOM     32  CZ  TYR A   9      29.102  20.994 -26.276  0.00  0.00    +0.134 A 
ATOM     33  CE1 TYR A   9      28.659  22.228 -25.763  0.00  0.00    +0.036 A 
ATOM     34  CD1 TYR A   9      28.408  22.289 -24.409  0.00  0.00    -0.001 A 
BRANCH  32  35
ATOM     35  OH  TYR A   9      29.347  20.939 -27.624  0.00  0.00    -0.506 OA
ATOM     36  HH  TYR A   9      29.236  21.841 -28.016  0.00  0.00    +0.292 HD
ENDBRANCH  32  35
ENDBRANCH  28  29
ENDBRANCH  25  28
ENDBRANCH  23  25
ENDBRANCH  20  21
BRANCH  20  37
ATOM     37  CB  LEU A   8      32.921  25.291 -21.008  0.00  0.00    +0.029 C 
BRANCH  37  38
ATOM     38  CG  LEU A   8      34.391  25.539 -20.794  0.00  0.00    +0.002 C 
ATOM     39  CD2 LEU A   8      34.754  25.243 -19.322  0.00  0.00    +0.000 C 
ATOM     40  CD1 LEU A   8      34.757  26.974 -21.163  0.00  0.00    +0.000 C 
ENDBRANCH  37  38
ENDBRANCH  20  37
ENDBRANCH  17  20
ENDBRANCH  12  16
ENDBRANCH   8   9
ENDBRANCH   1   2
BRANCH   1  43
ATOM     41  C   THR A   4      36.578  22.629 -17.341  0.00  0.00    +0.243 C 
ATOM     42  O   THR A   4      37.445  23.451 -17.066  0.00  0.00    -0.273 OA
ATOM     43  N   HIS A   5      36.424  22.084 -18.503  0.00  0.00    -0.297 N 
ATOM     44  H   HIS A   5      35.693  21.355 -18.625  0.00  0.00    +0.150 HD
BRANCH  41  45
ATOM     45  CA  THR A   4      35.563  22.213 -16.239  0.00  0.00    +0.176 C 
BRANCH  45  47
ATOM     46  C   LEU A   3      33.425  21.702 -17.291  0.00  0.00    +0.241 C 
ATOM     47  N   THR A   4      34.550  21.286 -16.744  0.00  0.00    -0.295 N 
ATOM     48  H   THR A   4      34.723  20.263 -16.669  0.00  0.00    +0.150 HD
ATOM     49  O   LEU A   3      33.147  22.944 -17.413  0.00  0.00    -0.273 OA
BRANCH  46  50
ATOM     50  CA  LEU A   3      32.368  20.673 -17.710  0.00  0.00    +0.149 C 
BRANCH  50  53
ATOM     51  C   SER A   2      30.713  21.592 -16.096  0.00  0.00    +0.243 C 
ATOM     52  O   SER A   2      31.291  21.226 -15.077  0.00  0.00    -0.273 OA
ATOM     53  N   LEU A   3      31.074  21.334 -17.354  0.00  0.00    -0.297 N 
ATOM     54  H   LEU A   3      30.427  21.605 -18.122  0.00  0.00    +0.150 HD
BRANCH  51  55
ATOM     55  CA  SER A   2      29.426  22.407 -16.004  0.00  0.00    +0.178 C 
BRANCH  55  57
ATOM     56  C   GLY A   1      27.740  22.739 -14.264  0.00  0.00    +0.240 C 
ATOM     57  N   SER A   2      29.035  22.746 -14.609  0.00  0.00    -0.295 N 
ATOM     58  H   SER A   2      29.762  22.987 -13.906  0.00  0.00    +0.150 HD
ATOM     59  O   GLY A   1      26.856  22.381 -15.059  0.00  0.00    -0.274 OA
BRANCH  56  60
ATOM     60  CA  GLY A   1      27.444  23.145 -12.853  0.00  0.00    +0.169 C 
BRANCH  60  61
ATOM     61  N   GLY A   1      26.260  22.420 -12.282  0.00  0.00    -0.236 NA
ATOM     62  H   GLY A   1      26.057  21.440 -12.564  0.00  0.00    +0.142 HD
ENDBRANCH  60  61
ENDBRANCH  56  60
ENDBRANCH  55  57
BRANCH  55  63
ATOM     63  CB  SER A   2      29.711  23.759 -16.700  0.00  0.00    +0.166 C 
BRANCH  63  64
ATOM     64  OG  SER A   2      31.027  24.258 -16.325  0.00  0.00    -0.380 OA
ATOM     65  H   SER A   2      31.717  23.603 -16.598  0.00  0.00    +0.211 HD
ENDBRANCH  63  64
ENDBRANCH  55  63
ENDBRANCH  51  55
ENDBRANCH  50  53
BRANCH  50  66
ATOM     66  CB  LEU A   3      32.402  20.398 -19.198  0.00  0.00    +0.029 C 
BRANCH  66  67
ATOM     67  CG  LEU A   3      31.379  19.502 -19.878  0.00  0.00    +0.002 C 
ATOM     68  CD2 LEU A   3      31.435  18.127 -19.278  0.00  0.00    +0.000 C 
ATOM     69  CD1 LEU A   3      31.726  19.383 -21.388  0.00  0.00    +0.000 C 
ENDBRANCH  66  67
ENDBRANCH  50  66
ENDBRANCH  46  50
ENDBRANCH  45  47
BRANCH  45  70
ATOM     70  CB  THR A   4      36.238  21.718 -14.928  0.00  0.00    +0.137 C 
ATOM     71  CG2 THR A   4      35.199  21.488 -13.771  0.00  0.00    +0.034 C 
BRANCH  70  72
ATOM     72  OG1 THR A   4      37.004  20.498 -15.264  0.00  0.00    -0.382 OA
ATOM     73  HG1 THR A   4      37.449  20.154 -14.449  0.00  0.00    +0.210 HD
ENDBRANCH  70  72
ENDBRANCH  45  70
ENDBRANCH  41  45
ENDBRANCH   1  43
BRANCH   1  74
ATOM     74  CB  HIS A   5      38.568  21.648 -19.735  0.00  0.00    +0.076 C 
BRANCH  74  75
ATOM     75  CG  HIS A   5      38.401  20.168 -19.858  0.00  0.00    +0.082 A 
ATOM     76  CD2 HIS A   5      38.679  19.159 -19.028  0.00  0.00    +0.115 A 
ATOM     77  NE2 HIS A   5      38.435  17.972 -19.687  0.00  0.00    -0.221 NA
ATOM     78  CE1 HIS A   5      38.025  18.261 -20.907  0.00  0.00    +0.199 A 
ATOM     79  ND1 HIS A   5      37.998  19.582 -21.041  0.00  0.00    -0.227 NA
ENDBRANCH  74  75
ENDBRANCH   1  74
TORSDOF 29
REMARK  Name = ../refined-set-2016/1azm/1azm_pocket.pdb
REMARK  150 active torsions:
REMARK  status: ('A' for Active; 'I' for Inactive)
REMARK    1  A    between atoms: _1  and  _3
REMARK    2  A    between atoms: _3  and  _4
REMARK    3  A    between atoms: _3  and  _6
REMARK    4  A    between atoms: _6  and  _7
REMARK    5  A    between atoms: _17  and  _19
REMARK    6  A    between atoms: _19  and  _20
REMARK    7  A    between atoms: _19  and  _22
REMARK    8  A    between atoms: _22  and  _23
REMARK    9  A    between atoms: _28  and  _29
REMARK   10  A    between atoms: _31  and  _33
REMARK   11  A    between atoms: _33  and  _34
REMARK   12  A    between atoms: _33  and  _36
REMARK   13  A    between atoms: _36  and  _37
REMARK   14  A    between atoms: _40  and  _41
REMARK   15  A    between atoms: _46  and  _48
REMARK   16  A    between atoms: _48  and  _49
REMARK   17  A    between atoms: _48  and  _51
REMARK   18  A    between atoms: _51  and  _52
REMARK   19  A    between atoms: _57  and  _59
REMARK   20  A    between atoms: _59  and  _60
REMARK   21  A    between atoms: _59  and  _62
REMARK   22  A    between atoms: _62  and  _63
REMARK   23  A    between atoms: _65  and  _67
REMARK   24  A    between atoms: _67  and  _68
REMARK   25  A    between atoms: _67  and  _70
REMARK   26  A    between atoms: _70  and  _71
REMARK   27  A    between atoms: _76  and  _78
REMARK   28  A    between atoms: _78  and  _79
REMARK   29  A    between atoms: _78  and  _81
REMARK   30  A    between atoms: _81  and  _82
REMARK   31  A    between atoms: _88  and  _90
REMARK   32  A    between atoms: _90  and  _91
REMARK   33  A    between atoms: _90  and  _93
REMARK   34  A    between atoms: _93  and  _94
REMARK   35  A    between atoms: _94  and  _95
REMARK   36  A    between atoms: _100  and  _102
REMARK   37  A    between atoms: _102  and  _103
REMARK   38  A    between atoms: _102  and  _105
REMARK   39  A    between atoms: _105  and  _106
REMARK   40  A    between atoms: _112  and  _114
REMARK   41  A    between atoms: _125  and  _128
REMARK   42  A    between atoms: _128  and  _129
REMARK   43  A    between atoms: _137  and  _138
REMARK   44  A    between atoms: _146  and  _148
REMARK   45  A    between atoms: _148  and  _149
REMARK   46  A    between atoms: _148  and  _151
REMARK   47  A    between atoms: _151  and  _152
REMARK   48  A    between atoms: _152  and  _153
REMARK   49  A    between atoms: _156  and  _158
REMARK   50  A    between atoms: _158  and  _159
REMARK   51  A    between atoms: _158  and  _161
REMARK   52  A    between atoms: _161  and  _162
REMARK   53  A    between atoms: _167  and  _169
REMARK   54  A    between atoms: _169  and  _170
REMARK   55  A    between atoms: _169  and  _172
REMARK   56  A    between atoms: _172  and  _173
REMARK   57  A    between atoms: _173  and  _174
REMARK   58  A    between atoms: _177  and  _179
REMARK   59  A    between atoms: _179  and  _180
REMARK   60  A    between atoms: _179  and  _182
REMARK   61  A    between atoms: _182  and  _183
REMARK   62  A    between atoms: _186  and  _188
REMARK   63  A    between atoms: _188  and  _189
REMARK   64  A    between atoms: _188  and  _191
REMARK   65  A    between atoms: _191  and  _192
REMARK   66  A    between atoms: _193  and  ZN_430
REMARK   67  A    between atoms: _197  and  _199
REMARK   68  A    between atoms: _199  and  _200
REMARK   69  A    between atoms: _199  and  _202
REMARK   70  A    between atoms: _205  and  _207
REMARK   71  A    between atoms: _207  and  _208
REMARK   72  A    between atoms: _211  and  _213
REMARK   73  A    between atoms: _213  and  _214
REMARK   74  A    between atoms: _213  and  _216
REMARK   75  A    between atoms: _216  and  _217
REMARK   76  A    between atoms: _222  and  _224
REMARK   77  A    between atoms: _224  and  _225
REMARK   78  A    between atoms: _224  and  _227
REMARK   79  A    between atoms: _227  and  _228
REMARK   80  A    between atoms: _238  and  _240
REMARK   81  A    between atoms: _240  and  _241
REMARK   82  A    between atoms: _240  and  _243
REMARK   83  A    between atoms: _243  and  _244
REMARK   84  A    between atoms: _247  and  _249
REMARK   85  A    between atoms: _249  and  _250
REMARK   86  A    between atoms: _253  and  _255
REMARK   87  A    between atoms: _255  and  _256
REMARK   88  A    between atoms: _259  and  _261
REMARK   89  A    between atoms: _261  and  _262
REMARK   90  A    between atoms: _261  and  _264
REMARK   91  A    between atoms: _264  and  _265
REMARK   92  A    between atoms: _268  and  _270
REMARK   93  A    between atoms: _270  and  _271
REMARK   94  A    between atoms: _274  and  _276
REMARK   95  A    between atoms: _276  and  _277
REMARK   96  A    between atoms: _276  and  _279
REMARK   97  A    between atoms: _282  and  _284
REMARK   98  A    between atoms: _284  and  _285
REMARK   99  A    between atoms: _284  and  _287
REMARK  100  A    between atoms: _287  and  _288
REMARK  101  A    between atoms: _291  and  _293
REMARK  102  A    between atoms: _293  and  _294
REMARK  103  A    between atoms: _296  and  _298
REMARK  104  A    between atoms: _298  and  _299
REMARK  105  A    between atoms: _298  and  _301
REMARK  106  A    between atoms: _301  and  _302
REMARK  107  A    between atoms: _304  and  _306
REMARK  108  A    between atoms: _306  and  _307
REMARK  109  A    between atoms: _306  and  _309
REMARK  110  A    between atoms: _309  and  _310
REMARK  111  A    between atoms: _313  and  _315
REMARK  112  A    between atoms: _315  and  _316
REMARK  113  A    between atoms: _315  and  _318
REMARK  114  A    between atoms: _318  and  _319
REMARK  115  A    between atoms: _322  and  _324
REMARK  116  A    between atoms: _324  and  _325
REMARK  117  A    between atoms: _324  and  _327
REMARK  118  A    between atoms: _327  and  _328
REMARK  119  A    between atoms: _334  and  _335
REMARK  120  A    between atoms: _341  and  _342
REMARK  121  A    between atoms: _347  and  _349
REMARK  122  A    between atoms: _349  and  _350
REMARK  123  A    between atoms: _349  and  _352
REMARK  124  A    between atoms: _352  and  _353
REMARK  125  A    between atoms: _356  and  _358
REMARK  126  A    between atoms: _358  and  _359
REMARK  127  A    between atoms: _358  and  _361
REMARK  128  A    between atoms: _361  and  _362
REMARK  129  A    between atoms: _367  and  _368
REMARK  130  A    between atoms: _370  and  _372
REMARK  131  A    between atoms: _372  and  _373
REMARK  132  A    between atoms: _372  and  _375
REMARK  133  A    between atoms: _375  and  _376
REMARK  134  A    between atoms: _378  and  _380
REMARK  135  A    between atoms: _380  and  _381
REMARK  136  A    between atoms: _380  and  _383
REMARK  137  A    between atoms: _386  and  _388
REMARK  138  A    between atoms: _388  and  _389
REMARK  139  A    between atoms: _388  and  _391
REMARK  140  A    between atoms: _391  and  _392
REMARK  141  A    between atoms: _402  and  _404
REMARK  142  A    between atoms: _404  and  _405
REMARK  143  A    between atoms: _404  and  _407
REMARK  144  A    between atoms: _407  and  _408
REMARK  145  A    between atoms: _413  and  _415
REMARK  146  A    between atoms: _415  and  _416
REMARK  147  A    between atoms: _415  and  _418
REMARK  148  A    between atoms: _418  and  _419
REMARK  149  A    between atoms: _419  and  _420
REMARK  150  A    between atoms: _420  and  _421
REMARK                            x       y       z     vdW  Elec       q    Type
REMARK                         _______ _______ _______ _____ _____    ______ ____
ROOT
ATOM      1  C   SER A   1      25.608  18.872 -17.190  0.00  0.00    +0.241 C 
ATOM      2  N   VAL A   2      26.281  19.342 -16.160  0.00  0.00    -0.298 N 
ATOM      3  H   VAL A   2      26.527  20.352 -16.131  0.00  0.00    +0.150 HD
ATOM      4  O   SER A   1      25.183  17.705 -17.349  0.00  0.00    -0.274 OA
ENDROOT
BRANCH   1   5
ATOM      5  CA  SER A   1      25.327  19.835 -18.333  0.00  0.00    +0.174 C 
BRANCH   5   6
ATOM      6  N   SER A   1      26.047  21.078 -18.328  0.00  0.00    -0.236 NA
ATOM      7  H   SER A   1      27.085  21.028 -18.281  0.00  0.00    +0.142 HD
ENDBRANCH   5   6
BRANCH   5   8
ATOM      8  CB  SER A   1      25.651  18.995 -19.614  0.00  0.00    +0.163 C 
BRANCH   8   9
ATOM      9  OG  SER A   1      27.067  19.046 -19.857  0.00  0.00    -0.380 OA
ATOM     10  H   SER A   1      27.281  18.517 -20.666  0.00  0.00    +0.211 HD
ENDBRANCH   8   9
ENDBRANCH   5   8
ENDBRANCH   1   5
BRANCH   2  11
ATOM     11  CA  VAL A   2      26.686  18.480 -15.065  0.00  0.00    +0.137 C 
BRANCH  11  12
ATOM     12  CB  VAL A   2      28.257  18.628 -14.882  0.00  0.00    +0.026 C 
ATOM     13  CG2 VAL A   2      28.710  17.675 -13.782  0.00  0.00    +0.002 C 
ATOM     14  CG1 VAL A   2      29.041  18.506 -16.163  0.00  0.00    +0.002 C 
ENDBRANCH  11  12
BRANCH  11  15
ATOM     15  C   VAL A   2      26.032  18.724 -13.720  0.00  0.00    +0.227 C 
ATOM     16  O   VAL A   2      25.884  19.815 -13.186  0.00  0.00    -0.286 OA
ENDBRANCH  11  15
ENDBRANCH   2  11
TORSDOF 7
REMARK  Name = ../refined-set-2016/1azm/1azm_pocket.pdb
REMARK  150 active torsions:
REMARK  status: ('A' for Active; 'I' for Inactive)
REMARK    1  A    between atoms: _1  and  _3
REMARK    2  A    between atoms: _3  and  _4
REMARK    3  A    between atoms: _3  and  _6
REMARK    4  A    between atoms: _6  and  _7
REMARK    5  A    between atoms: _17  and  _19
REMARK    6  A    between atoms: _19  and  _20
REMARK    7  A    between atoms: _19  and  _22
REMARK    8  A    between atoms: _22  and  _23
REMARK    9  A    between atoms: _28  and  _29
REMARK   10  A    between atoms: _31  and  _33
REMARK   11  A    between atoms: _33  and  _34
REMARK   12  A    between atoms: _33  and  _36
REMARK   13  A    between atoms: _36  and  _37
REMARK   14  A    between atoms: _40  and  _41
REMARK   15  A    between atoms: _46  and  _48
REMARK   16  A    between atoms: _48  and  _49
REMARK   17  A    between atoms: _48  and  _51
REMARK   18  A    between atoms: _51  and  _52
REMARK   19  A    between atoms: _57  and  _59
REMARK   20  A    between atoms: _59  and  _60
REMARK   21  A    between atoms: _59  and  _62
REMARK   22  A    between atoms: _62  and  _63
REMARK   23  A    between atoms: _65  and  _67
REMARK   24  A    between atoms: _67  and  _68
REMARK   25  A    between atoms: _67  and  _70
REMARK   26  A    between atoms: _70  and  _71
REMARK   27  A    between atoms: _76  and  _78
REMARK   28  A    between atoms: _78  and  _79
REMARK   29  A    between atoms: _78  and  _81
REMARK   30  A    between atoms: _81  and  _82
REMARK   31  A    between atoms: _88  and  _90
REMARK   32  A    between atoms: _90  and  _91
REMARK   33  A    between atoms: _90  and  _93
REMARK   34  A    between atoms: _93  and  _94
REMARK   35  A    between atoms: _94  and  _95
REMARK   36  A    between atoms: _100  and  _102
REMARK   37  A    between atoms: _102  and  _103
REMARK   38  A    between atoms: _102  and  _105
REMARK   39  A    between atoms: _105  and  _106
REMARK   40  A    between atoms: _112  and  _114
REMARK   41  A    between atoms: _125  and  _128
REMARK   42  A    between atoms: _128  and  _129
REMARK   43  A    between atoms: _137  and  _138
REMARK   44  A    between atoms: _146  and  _148
REMARK   45  A    between atoms: _148  and  _149
REMARK   46  A    between atoms: _148  and  _151
REMARK   47  A    between atoms: _151  and  _152
REMARK   48  A    between atoms: _152  and  _153
REMARK   49  A    between atoms: _156  and  _158
REMARK   50  A    between atoms: _158  and  _159
REMARK   51  A    between atoms: _158  and  _161
REMARK   52  A    between atoms: _161  and  _162
REMARK   53  A    between atoms: _167  and  _169
REMARK   54  A    between atoms: _169  and  _170
REMARK   55  A    between atoms: _169  and  _172
REMARK   56  A    between atoms: _172  and  _173
REMARK   57  A    between atoms: _173  and  _174
REMARK   58  A    between atoms: _177  and  _179
REMARK   59  A    between atoms: _179  and  _180
REMARK   60  A    between atoms: _179  and  _182
REMARK   61  A    between atoms: _182  and  _183
REMARK   62  A    between atoms: _186  and  _188
REMARK   63  A    between atoms: _188  and  _189
REMARK   64  A    between atoms: _188  and  _191
REMARK   65  A    between atoms: _191  and  _192
REMARK   66  A    between atoms: _193  and  ZN_430
REMARK   67  A    between atoms: _197  and  _199
REMARK   68  A    between atoms: _199  and  _200
REMARK   69  A    between atoms: _199  and  _202
REMARK   70  A    between atoms: _205  and  _207
REMARK   71  A    between atoms: _207  and  _208
REMARK   72  A    between atoms: _211  and  _213
REMARK   73  A    between atoms: _213  and  _214
REMARK   74  A    between atoms: _213  and  _216
REMARK   75  A    between atoms: _216  and  _217
REMARK   76  A    between atoms: _222  and  _224
REMARK   77  A    between atoms: _224  and  _225
REMARK   78  A    between atoms: _224  and  _227
REMARK   79  A    between atoms: _227  and  _228
REMARK   80  A    between atoms: _238  and  _240
REMARK   81  A    between atoms: _240  and  _241
REMARK   82  A    between atoms: _240  and  _243
REMARK   83  A    between atoms: _243  and  _244
REMARK   84  A    between atoms: _247  and  _249
REMARK   85  A    between atoms: _249  and  _250
REMARK   86  A    between atoms: _253  and  _255
REMARK   87  A    between atoms: _255  and  _256
REMARK   88  A    between atoms: _259  and  _261
REMARK   89  A    between atoms: _261  and  _262
REMARK   90  A    between atoms: _261  and  _264
REMARK   91  A    between atoms: _264  and  _265
REMARK   92  A    between atoms: _268  and  _270
REMARK   93  A    between atoms: _270  and  _271
REMARK   94  A    between atoms: _274  and  _276
REMARK   95  A    between atoms: _276  and  _277
REMARK   96  A    between atoms: _276  and  _279
REMARK   97  A    between atoms: _282  and  _284
REMARK   98  A    between atoms: _284  and  _285
REMARK   99  A    between atoms: _284  and  _287
REMARK  100  A    between atoms: _287  and  _288
REMARK  101  A    between atoms: _291  and  _293
REMARK  102  A    between atoms: _293  and  _294
REMARK  103  A    between atoms: _296  and  _298
REMARK  104  A    between atoms: _298  and  _299
REMARK  105  A    between atoms: _298  and  _301
REMARK  106  A    between atoms: _301  and  _302
REMARK  107  A    between atoms: _304  and  _306
REMARK  108  A    between atoms: _306  and  _307
REMARK  109  A    between atoms: _306  and  _309
REMARK  110  A    between atoms: _309  and  _310
REMARK  111  A    between atoms: _313  and  _315
REMARK  112  A    between atoms: _315  and  _316
REMARK  113  A    between atoms: _315  and  _318
REMARK  114  A    between atoms: _318  and  _319
REMARK  115  A    between atoms: _322  and  _324
REMARK  116  A    between atoms: _324  and  _325
REMARK  117  A    between atoms: _324  and  _327
REMARK  118  A    between atoms: _327  and  _328
REMARK  119  A    between atoms: _334  and  _335
REMARK  120  A    between atoms: _341  and  _342
REMARK  121  A    between atoms: _347  and  _349
REMARK  122  A    between atoms: _349  and  _350
REMARK  123  A    between atoms: _349  and  _352
REMARK  124  A    between atoms: _352  and  _353
REMARK  125  A    between atoms: _356  and  _358
REMARK  126  A    between atoms: _358  and  _359
REMARK  127  A    between atoms: _358  and  _361
REMARK  128  A    between atoms: _361  and  _362
REMARK  129  A    between atoms: _367  and  _368
REMARK  130  A    between atoms: _370  and  _372
REMARK  131  A    between atoms: _372  and  _373
REMARK  132  A    between atoms: _372  and  _375
REMARK  133  A    between atoms: _375  and  _376
REMARK  134  A    between atoms: _378  and  _380
REMARK  135  A    between atoms: _380  and  _381
REMARK  136  A    between atoms: _380  and  _383
REMARK  137  A    between atoms: _386  and  _388
REMARK  138  A    between atoms: _388  and  _389
REMARK  139  A    between atoms: _388  and  _391
REMARK  140  A    between atoms: _391  and  _392
REMARK  141  A    between atoms: _402  and  _404
REMARK  142  A    between atoms: _404  and  _405
REMARK  143  A    between atoms: _404  and  _407
REMARK  144  A    between atoms: _407  and  _408
REMARK  145  A    between atoms: _413  and  _415
REMARK  146  A    between atoms: _415  and  _416
REMARK  147  A    between atoms: _415  and  _418
REMARK  148  A    between atoms: _418  and  _419
REMARK  149  A    between atoms: _419  and  _420
REMARK  150  A    between atoms: _420  and  _421
REMARK                            x       y       z     vdW  Elec       q    Type
REMARK                         _______ _______ _______ _____ _____    ______ ____
ROOT
ATOM      1  CG  TRP A   1      29.878  19.198 -10.283  0.00  0.00    -0.002 A 
ATOM      2  CD2 TRP A   1      31.124  18.620 -10.698  0.00  0.00    +0.013 A 
ATOM      3  CE3 TRP A   1      31.960  17.643 -10.141  0.00  0.00    +0.001 A 
ATOM      4  CZ3 TRP A   1      33.139  17.284 -10.822  0.00  0.00    +0.000 A 
ATOM      5  CH2 TRP A   1      33.463  17.911 -12.064  0.00  0.00    +0.001 A 
ATOM      6  CZ2 TRP A   1      32.605  18.828 -12.646  0.00  0.00    +0.017 A 
ATOM      7  CE2 TRP A   1      31.412  19.119 -11.982  0.00  0.00    +0.056 A 
ATOM      8  NE1 TRP A   1      30.428  20.038 -12.304  0.00  0.00    -0.352 N 
ATOM      9  HE1 TRP A   1      30.400  20.614 -13.170  0.00  0.00    +0.166 HD
ATOM     10  CD1 TRP A   1      29.483  20.067 -11.283  0.00  0.00    +0.068 A 
ENDROOT
BRANCH   1  11
ATOM     11  CB  TRP A   1      29.062  18.885  -9.064  0.00  0.00    +0.053 C 
BRANCH  11  12
ATOM     12  CA  TRP A   1      28.141  17.655  -9.372  0.00  0.00    +0.137 C 
BRANCH  12  13
ATOM     13  N   TRP A   1      27.005  18.027 -10.211  0.00  0.00    -0.239 NA
ATOM     14  H   TRP A   1      26.682  19.015 -10.246  0.00  0.00    +0.142 HD
ENDBRANCH  12  13
BRANCH  12  15
ATOM     15  C   TRP A   1      27.791  16.938  -8.102  0.00  0.00    +0.224 C 
ATOM     16  O   TRP A   1      26.839  17.373  -7.429  0.00  0.00    -0.287 OA
ENDBRANCH  12  15
ENDBRANCH  11  12
ENDBRANCH   1  11
TORSDOF 4
REMARK  Name = ../refined-set-2016/1azm/1azm_pocket.pdb
REMARK  150 active torsions:
REMARK  status: ('A' for Active; 'I' for Inactive)
REMARK    1  A    between atoms: _1  and  _3
REMARK    2  A    between atoms: _3  and  _4
REMARK    3  A    between atoms: _3  and  _6
REMARK    4  A    between atoms: _6  and  _7
REMARK    5  A    between atoms: _17  and  _19
REMARK    6  A    between atoms: _19  and  _20
REMARK    7  A    between atoms: _19  and  _22
REMARK    8  A    between atoms: _22  and  _23
REMARK    9  A    between atoms: _28  and  _29
REMARK   10  A    between atoms: _31  and  _33
REMARK   11  A    between atoms: _33  and  _34
REMARK   12  A    between atoms: _33  and  _36
REMARK   13  A    between atoms: _36  and  _37
REMARK   14  A    between atoms: _40  and  _41
REMARK   15  A    between atoms: _46  and  _48
REMARK   16  A    between atoms: _48  and  _49
REMARK   17  A    between atoms: _48  and  _51
REMARK   18  A    between atoms: _51  and  _52
REMARK   19  A    between atoms: _57  and  _59
REMARK   20  A    between atoms: _59  and  _60
REMARK   21  A    between atoms: _59  and  _62
REMARK   22  A    between atoms: _62  and  _63
REMARK   23  A    between atoms: _65  and  _67
REMARK   24  A    between atoms: _67  and  _68
REMARK   25  A    between atoms: _67  and  _70
REMARK   26  A    between atoms: _70  and  _71
REMARK   27  A    between atoms: _76  and  _78
REMARK   28  A    between atoms: _78  and  _79
REMARK   29  A    between atoms: _78  and  _81
REMARK   30  A    between atoms: _81  and  _82
REMARK   31  A    between atoms: _88  and  _90
REMARK   32  A    between atoms: _90  and  _91
REMARK   33  A    between atoms: _90  and  _93
REMARK   34  A    between atoms: _93  and  _94
REMARK   35  A    between atoms: _94  and  _95
REMARK   36  A    between atoms: _100  and  _102
REMARK   37  A    between atoms: _102  and  _103
REMARK   38  A    between atoms: _102  and  _105
REMARK   39  A    between atoms: _105  and  _106
REMARK   40  A    between atoms: _112  and  _114
REMARK   41  A    between atoms: _125  and  _128
REMARK   42  A    between atoms: _128  and  _129
REMARK   43  A    between atoms: _137  and  _138
REMARK   44  A    between atoms: _146  and  _148
REMARK   45  A    between atoms: _148  and  _149
REMARK   46  A    between atoms: _148  and  _151
REMARK   47  A    between atoms: _151  and  _152
REMARK   48  A    between atoms: _152  and  _153
REMARK   49  A    between atoms: _156  and  _158
REMARK   50  A    between atoms: _158  and  _159
REMARK   51  A    between atoms: _158  and  _161
REMARK   52  A    between atoms: _161  and  _162
REMARK   53  A    between atoms: _167  and  _169
REMARK   54  A    between atoms: _169  and  _170
REMARK   55  A    between atoms: _169  and  _172
REMARK   56  A    between atoms: _172  and  _173
REMARK   57  A    between atoms: _173  and  _174
REMARK   58  A    between atoms: _177  and  _179
REMARK   59  A    between atoms: _179  and  _180
REMARK   60  A    between atoms: _179  and  _182
REMARK   61  A    between atoms: _182  and  _183
REMARK   62  A    between atoms: _186  and  _188
REMARK   63  A    between atoms: _188  and  _189
REMARK   64  A    between atoms: _188  and  _191
REMARK   65  A    between atoms: _191  and  _192
REMARK   66  A    between atoms: _193  and  ZN_430
REMARK   67  A    between atoms: _197  and  _199
REMARK   68  A    between atoms: _199  and  _200
REMARK   69  A    between atoms: _199  and  _202
REMARK   70  A    between atoms: _205  and  _207
REMARK   71  A    between atoms: _207  and  _208
REMARK   72  A    between atoms: _211  and  _213
REMARK   73  A    between atoms: _213  and  _214
REMARK   74  A    between atoms: _213  and  _216
REMARK   75  A    between atoms: _216  and  _217
REMARK   76  A    between atoms: _222  and  _224
REMARK   77  A    between atoms: _224  and  _225
REMARK   78  A    between atoms: _224  and  _227
REMARK   79  A    between atoms: _227  and  _228
REMARK   80  A    between atoms: _238  and  _240
REMARK   81  A    between atoms: _240  and  _241
REMARK   82  A    between atoms: _240  and  _243
REMARK   83  A    between atoms: _243  and  _244
REMARK   84  A    between atoms: _247  and  _249
REMARK   85  A    between atoms: _249  and  _250
REMARK   86  A    between atoms: _253  and  _255
REMARK   87  A    between atoms: _255  and  _256
REMARK   88  A    between atoms: _259  and  _261
REMARK   89  A    between atoms: _261  and  _262
REMARK   90  A    between atoms: _261  and  _264
REMARK   91  A    between atoms: _264  and  _265
REMARK   92  A    between atoms: _268  and  _270
REMARK   93  A    between atoms: _270  and  _271
REMARK   94  A    between atoms: _274  and  _276
REMARK   95  A    between atoms: _276  and  _277
REMARK   96  A    between atoms: _276  and  _279
REMARK   97  A    between atoms: _282  and  _284
REMARK   98  A    between atoms: _284  and  _285
REMARK   99  A    between atoms: _284  and  _287
REMARK  100  A    between atoms: _287  and  _288
REMARK  101  A    between atoms: _291  and  _293
REMARK  102  A    between atoms: _293  and  _294
REMARK  103  A    between atoms: _296  and  _298
REMARK  104  A    between atoms: _298  and  _299
REMARK  105  A    between atoms: _298  and  _301
REMARK  106  A    between atoms: _301  and  _302
REMARK  107  A    between atoms: _304  and  _306
REMARK  108  A    between atoms: _306  and  _307
REMARK  109  A    between atoms: _306  and  _309
REMARK  110  A    between atoms: _309  and  _310
REMARK  111  A    between atoms: _313  and  _315
REMARK  112  A    between atoms: _315  and  _316
REMARK  113  A    between atoms: _315  and  _318
REMARK  114  A    between atoms: _318  and  _319
REMARK  115  A    between atoms: _322  and  _324
REMARK  116  A    between atoms: _324  and  _325
REMARK  117  A    between atoms: _324  and  _327
REMARK  118  A    between atoms: _327  and  _328
REMARK  119  A    between atoms: _334  and  _335
REMARK  120  A    between atoms: _341  and  _342
REMARK  121  A    between atoms: _347  and  _349
REMARK  122  A    between atoms: _349  and  _350
REMARK  123  A    between atoms: _349  and  _352
REMARK  124  A    between atoms: _352  and  _353
REMARK  125  A    between atoms: _356  and  _358
REMARK  126  A    between atoms: _358  and  _359
REMARK  127  A    between atoms: _358  and  _361
REMARK  128  A    between atoms: _361  and  _362
REMARK  129  A    between atoms: _367  and  _368
REMARK  130  A    between atoms: _370  and  _372
REMARK  131  A    between atoms: _372  and  _373
REMARK  132  A    between atoms: _372  and  _375
REMARK  133  A    between atoms: _375  and  _376
REMARK  134  A    between atoms: _378  and  _380
REMARK  135  A    between atoms: _380  and  _381
REMARK  136  A    between atoms: _380  and  _383
REMARK  137  A    between atoms: _386  and  _388
REMARK  138  A    between atoms: _388  and  _389
REMARK  139  A    between atoms: _388  and  _391
REMARK  140  A    between atoms: _391  and  _392
REMARK  141  A    between atoms: _402  and  _404
REMARK  142  A    between atoms: _404  and  _405
REMARK  143  A    between atoms: _404  and  _407
REMARK  144  A    between atoms: _407  and  _408
REMARK  145  A    between atoms: _413  and  _415
REMARK  146  A    between atoms: _415  and  _416
REMARK  147  A    between atoms: _415  and  _418
REMARK  148  A    between atoms: _418  and  _419
REMARK  149  A    between atoms: _419  and  _420
REMARK  150  A    between atoms: _420  and  _421
REMARK                            x       y       z     vdW  Elec       q    Type
REMARK                         _______ _______ _______ _____ _____    ______ ____
ROOT
ATOM      1  CB  ASN A   1      45.136  19.625 -16.467  0.00  0.00    +0.110 C 
ENDROOT
BRANCH   1   2
ATOM      2  CG  ASN A   1      45.239  18.440 -15.513  0.00  0.00    +0.221 C 
ATOM      3  ND2 ASN A   1      45.025  18.601 -14.260  0.00  0.00    -0.329 N 
ATOM      4 HD21 ASN A   1      45.041  17.781 -13.620  0.00  0.00    +0.145 HD
ATOM      5 HD22 ASN A   1      44.835  19.551 -13.883  0.00  0.00    +0.145 HD
ATOM      6  OD1 ASN A   1      45.467  17.293 -15.960  0.00  0.00    -0.275 OA
ENDBRANCH   1   2
BRANCH   1   7
ATOM      7  CA  ASN A   1      45.286  20.973 -15.726  0.00  0.00    +0.142 C 
BRANCH   7   8
ATOM      8  N   ASN A   1      46.523  21.049 -14.961  0.00  0.00    -0.239 NA
ATOM      9  H   ASN A   1      46.462  20.948 -13.928  0.00  0.00    +0.142 HD
ENDBRANCH   7   8
BRANCH   7  10
ATOM     10  C   ASN A   1      44.086  21.294 -14.824  0.00  0.00    +0.225 C 
ATOM     11  O   ASN A   1      43.072  20.622 -14.990  0.00  0.00    -0.287 OA
ENDBRANCH   7  10
ENDBRANCH   1   7
TORSDOF 4
REMARK  Name = ../refined-set-2016/1azm/1azm_pocket.pdb
REMARK  150 active torsions:
REMARK  status: ('A' for Active; 'I' for Inactive)
REMARK    1  A    between atoms: _1  and  _3
REMARK    2  A    between atoms: _3  and  _4
REMARK    3  A    between atoms: _3  and  _6
REMARK    4  A    between atoms: _6  and  _7
REMARK    5  A    between atoms: _17  and  _19
REMARK    6  A    between atoms: _19  and  _20
REMARK    7  A    between atoms: _19  and  _22
REMARK    8  A    between atoms: _22  and  _23
REMARK    9  A    between atoms: _28  and  _29
REMARK   10  A    between atoms: _31  and  _33
REMARK   11  A    between atoms: _33  and  _34
REMARK   12  A    between atoms: _33  and  _36
REMARK   13  A    between atoms: _36  and  _37
REMARK   14  A    between atoms: _40  and  _41
REMARK   15  A    between atoms: _46  and  _48
REMARK   16  A    between atoms: _48  and  _49
REMARK   17  A    between atoms: _48  and  _51
REMARK   18  A    between atoms: _51  and  _52
REMARK   19  A    between atoms: _57  and  _59
REMARK   20  A    between atoms: _59  and  _60
REMARK   21  A    between atoms: _59  and  _62
REMARK   22  A    between atoms: _62  and  _63
REMARK   23  A    between atoms: _65  and  _67
REMARK   24  A    between atoms: _67  and  _68
REMARK   25  A    between atoms: _67  and  _70
REMARK   26  A    between atoms: _70  and  _71
REMARK   27  A    between atoms: _76  and  _78
REMARK   28  A    between atoms: _78  and  _79
REMARK   29  A    between atoms: _78  and  _81
REMARK   30  A    between atoms: _81  and  _82
REMARK   31  A    between atoms: _88  and  _90
REMARK   32  A    between atoms: _90  and  _91
REMARK   33  A    between atoms: _90  and  _93
REMARK   34  A    between atoms: _93  and  _94
REMARK   35  A    between atoms: _94  and  _95
REMARK   36  A    between atoms: _100  and  _102
REMARK   37  A    between atoms: _102  and  _103
REMARK   38  A    between atoms: _102  and  _105
REMARK   39  A    between atoms: _105  and  _106
REMARK   40  A    between atoms: _112  and  _114
REMARK   41  A    between atoms: _125  and  _128
REMARK   42  A    between atoms: _128  and  _129
REMARK   43  A    between atoms: _137  and  _138
REMARK   44  A    between atoms: _146  and  _148
REMARK   45  A    between atoms: _148  and  _149
REMARK   46  A    between atoms: _148  and  _151
REMARK   47  A    between atoms: _151  and  _152
REMARK   48  A    between atoms: _152  and  _153
REMARK   49  A    between atoms: _156  and  _158
REMARK   50  A    between atoms: _158  and  _159
REMARK   51  A    between atoms: _158  and  _161
REMARK   52  A    between atoms: _161  and  _162
REMARK   53  A    between atoms: _167  and  _169
REMARK   54  A    between atoms: _169  and  _170
REMARK   55  A    between atoms: _169  and  _172
REMARK   56  A    between atoms: _172  and  _173
REMARK   57  A    between atoms: _173  and  _174
REMARK   58  A    between atoms: _177  and  _179
REMARK   59  A    between atoms: _179  and  _180
REMARK   60  A    between atoms: _179  and  _182
REMARK   61  A    between atoms: _182  and  _183
REMARK   62  A    between atoms: _186  and  _188
REMARK   63  A    between atoms: _188  and  _189
REMARK   64  A    between atoms: _188  and  _191
REMARK   65  A    between atoms: _191  and  _192
REMARK   66  A    between atoms: _193  and  ZN_430
REMARK   67  A    between atoms: _197  and  _199
REMARK   68  A    between atoms: _199  and  _200
REMARK   69  A    between atoms: _199  and  _202
REMARK   70  A    between atoms: _205  and  _207
REMARK   71  A    between atoms: _207  and  _208
REMARK   72  A    between atoms: _211  and  _213
REMARK   73  A    between atoms: _213  and  _214
REMARK   74  A    between atoms: _213  and  _216
REMARK   75  A    between atoms: _216  and  _217
REMARK   76  A    between atoms: _222  and  _224
REMARK   77  A    between atoms: _224  and  _225
REMARK   78  A    between atoms: _224  and  _227
REMARK   79  A    between atoms: _227  and  _228
REMARK   80  A    between atoms: _238  and  _240
REMARK   81  A    between atoms: _240  and  _241
REMARK   82  A    between atoms: _240  and  _243
REMARK   83  A    between atoms: _243  and  _244
REMARK   84  A    between atoms: _247  and  _249
REMARK   85  A    between atoms: _249  and  _250
REMARK   86  A    between atoms: _253  and  _255
REMARK   87  A    between atoms: _255  and  _256
REMARK   88  A    between atoms: _259  and  _261
REMARK   89  A    between atoms: _261  and  _262
REMARK   90  A    between atoms: _261  and  _264
REMARK   91  A    between atoms: _264  and  _265
REMARK   92  A    between atoms: _268  and  _270
REMARK   93  A    between atoms: _270  and  _271
REMARK   94  A    between atoms: _274  and  _276
REMARK   95  A    between atoms: _276  and  _277
REMARK   96  A    between atoms: _276  and  _279
REMARK   97  A    between atoms: _282  and  _284
REMARK   98  A    between atoms: _284  and  _285
REMARK   99  A    between atoms: _284  and  _287
REMARK  100  A    between atoms: _287  and  _288
REMARK  101  A    between atoms: _291  and  _293
REMARK  102  A    between atoms: _293  and  _294
REMARK  103  A    between atoms: _296  and  _298
REMARK  104  A    between atoms: _298  and  _299
REMARK  105  A    between atoms: _298  and  _301
REMARK  106  A    between atoms: _301  and  _302
REMARK  107  A    between atoms: _304  and  _306
REMARK  108  A    between atoms: _306  and  _307
REMARK  109  A    between atoms: _306  and  _309
REMARK  110  A    between atoms: _309  and  _310
REMARK  111  A    between atoms: _313  and  _315
REMARK  112  A    between atoms: _315  and  _316
REMARK  113  A    between atoms: _315  and  _318
REMARK  114  A    between atoms: _318  and  _319
REMARK  115  A    between atoms: _322  and  _324
REMARK  116  A    between atoms: _324  and  _325
REMARK  117  A    between atoms: _324  and  _327
REMARK  118  A    between atoms: _327  and  _328
REMARK  119  A    between atoms: _334  and  _335
REMARK  120  A    between atoms: _341  and  _342
REMARK  121  A    between atoms: _347  and  _349
REMARK  122  A    between atoms: _349  and  _350
REMARK  123  A    between atoms: _349  and  _352
REMARK  124  A    between atoms: _352  and  _353
REMARK  125  A    between atoms: _356  and  _358
REMARK  126  A    between atoms: _358  and  _359
REMARK  127  A    between atoms: _358  and  _361
REMARK  128  A    between atoms: _361  and  _362
REMARK  129  A    between atoms: _367  and  _368
REMARK  130  A    between atoms: _370  and  _372
REMARK  131  A    between atoms: _372  and  _373
REMARK  132  A    between atoms: _372  and  _375
REMARK  133  A    between atoms: _375  and  _376
REMARK  134  A    between atoms: _378  and  _380
REMARK  135  A    between atoms: _380  and  _381
REMARK  136  A    between atoms: _380  and  _383
REMARK  137  A    between atoms: _386  and  _388
REMARK  138  A    between atoms: _388  and  _389
REMARK  139  A    between atoms: _388  and  _391
REMARK  140  A    between atoms: _391  and  _392
REMARK  141  A    between atoms: _402  and  _404
REMARK  142  A    between atoms: _404  and  _405
REMARK  143  A    between atoms: _404  and  _407
REMARK  144  A    between atoms: _407  and  _408
REMARK  145  A    between atoms: _413  and  _415
REMARK  146  A    between atoms: _415  and  _416
REMARK  147  A    between atoms: _415  and  _418
REMARK  148  A    between atoms: _418  and  _419
REMARK  149  A    between atoms: _419  and  _420
REMARK  150  A    between atoms: _420  and  _421
REMARK                            x       y       z     vdW  Elec       q    Type
REMARK                         _______ _______ _______ _____ _____    ______ ____
ROOT
ATOM      1  NE  ARG A   1      36.697  27.539 -16.127  0.00  0.00    -0.265 N 
ATOM      2  HE  ARG A   1      37.364  28.257 -16.476  0.00  0.00    +0.259 HD
ATOM      3  CZ  ARG A   1      35.394  27.635 -16.507  0.00  0.00    +0.342 C 
ATOM      4  NH2 ARG A   1      34.463  26.749 -16.224  0.00  0.00    -0.292 N 
ATOM      5 HH21 ARG A   1      34.703  25.901 -15.672  0.00  0.00    +0.255 HD
ATOM      6 HH22 ARG A   1      33.487  26.897 -16.553  0.00  0.00    +0.255 HD
ATOM      7  NH1 ARG A   1      34.996  28.725 -17.211  0.00  0.00    -0.292 N 
ATOM      8 HH11 ARG A   1      35.683  29.468 -17.451  0.00  0.00    +0.255 HD
ATOM      9 HH12 ARG A   1      34.004  28.817 -17.511  0.00  0.00    +0.255 HD
ENDROOT
BRANCH   1  10
ATOM     10  CD  ARG A   1      37.213  26.485 -15.256  0.00  0.00    +0.174 C 
BRANCH  10  11
ATOM     11  CG  ARG A   1      38.638  26.605 -14.911  0.00  0.00    +0.045 C 
BRANCH  11  12
ATOM     12  CB  ARG A   1      39.277  25.340 -14.409  0.00  0.00    +0.029 C 
BRANCH  12  13
ATOM     13  CA  ARG A   1      40.652  25.586 -13.695  0.00  0.00    +0.133 C 
BRANCH  13  14
ATOM     14  N   ARG A   1      41.216  24.235 -13.433  0.00  0.00    -0.239 NA
ATOM     15  H   ARG A   1      40.580  23.432 -13.253  0.00  0.00    +0.142 HD
ENDBRANCH  13  14
BRANCH  13  16
ATOM     16  C   ARG A   1      40.321  26.315 -12.385  0.00  0.00    +0.224 C 
ATOM     17  O   ARG A   1      39.829  25.737 -11.422  0.00  0.00    -0.287 OA
ENDBRANCH  13  16
ENDBRANCH  12  13
ENDBRANCH  11  12
ENDBRANCH  10  11
ENDBRANCH   1  10
TORSDOF 6
REMARK  Name = ../refined-set-2016/1azm/1azm_pocket.pdb
REMARK  150 active torsions:
REMARK  status: ('A' for Active; 'I' for Inactive)
REMARK    1  A    between atoms: _1  and  _3
REMARK    2  A    between atoms: _3  and  _4
REMARK    3  A    between atoms: _3  and  _6
REMARK    4  A    between atoms: _6  and  _7
REMARK    5  A    between atoms: _17  and  _19
REMARK    6  A    between atoms: _19  and  _20
REMARK    7  A    between atoms: _19  and  _22
REMARK    8  A    between atoms: _22  and  _23
REMARK    9  A    between atoms: _28  and  _29
REMARK   10  A    between atoms: _31  and  _33
REMARK   11  A    between atoms: _33  and  _34
REMARK   12  A    between atoms: _33  and  _36
REMARK   13  A    between atoms: _36  and  _37
REMARK   14  A    between atoms: _40  and  _41
REMARK   15  A    between atoms: _46  and  _48
REMARK   16  A    between atoms: _48  and  _49
REMARK   17  A    between atoms: _48  and  _51
REMARK   18  A    between atoms: _51  and  _52
REMARK   19  A    between atoms: _57  and  _59
REMARK   20  A    between atoms: _59  and  _60
REMARK   21  A    between atoms: _59  and  _62
REMARK   22  A    between atoms: _62  and  _63
REMARK   23  A    between atoms: _65  and  _67
REMARK   24  A    between atoms: _67  and  _68
REMARK   25  A    between atoms: _67  and  _70
REMARK   26  A    between atoms: _70  and  _71
REMARK   27  A    between atoms: _76  and  _78
REMARK   28  A    between atoms: _78  and  _79
REMARK   29  A    between atoms: _78  and  _81
REMARK   30  A    between atoms: _81  and  _82
REMARK   31  A    between atoms: _88  and  _90
REMARK   32  A    between atoms: _90  and  _91
REMARK   33  A    between atoms: _90  and  _93
REMARK   34  A    between atoms: _93  and  _94
REMARK   35  A    between atoms: _94  and  _95
REMARK   36  A    between atoms: _100  and  _102
REMARK   37  A    between atoms: _102  and  _103
REMARK   38  A    between atoms: _102  and  _105
REMARK   39  A    between atoms: _105  and  _106
REMARK   40  A    between atoms: _112  and  _114
REMARK   41  A    between atoms: _125  and  _128
REMARK   42  A    between atoms: _128  and  _129
REMARK   43  A    between atoms: _137  and  _138
REMARK   44  A    between atoms: _146  and  _148
REMARK   45  A    between atoms: _148  and  _149
REMARK   46  A    between atoms: _148  and  _151
REMARK   47  A    between atoms: _151  and  _152
REMARK   48  A    between atoms: _152  and  _153
REMARK   49  A    between atoms: _156  and  _158
REMARK   50  A    between atoms: _158  and  _159
REMARK   51  A    between atoms: _158  and  _161
REMARK   52  A    between atoms: _161  and  _162
REMARK   53  A    between atoms: _167  and  _169
REMARK   54  A    between atoms: _169  and  _170
REMARK   55  A    between atoms: _169  and  _172
REMARK   56  A    between atoms: _172  and  _173
REMARK   57  A    between atoms: _173  and  _174
REMARK   58  A    between atoms: _177  and  _179
REMARK   59  A    between atoms: _179  and  _180
REMARK   60  A    between atoms: _179  and  _182
REMARK   61  A    between atoms: _182  and  _183
REMARK   62  A    between atoms: _186  and  _188
REMARK   63  A    between atoms: _188  and  _189
REMARK   64  A    between atoms: _188  and  _191
REMARK   65  A    between atoms: _191  and  _192
REMARK   66  A    between atoms: _193  and  ZN_430
REMARK   67  A    between atoms: _197  and  _199
REMARK   68  A    between atoms: _199  and  _200
REMARK   69  A    between atoms: _199  and  _202
REMARK   70  A    between atoms: _205  and  _207
REMARK   71  A    between atoms: _207  and  _208
REMARK   72  A    between atoms: _211  and  _213
REMARK   73  A    between atoms: _213  and  _214
REMARK   74  A    between atoms: _213  and  _216
REMARK   75  A    between atoms: _216  and  _217
REMARK   76  A    between atoms: _222  and  _224
REMARK   77  A    between atoms: _224  and  _225
REMARK   78  A    between atoms: _224  and  _227
REMARK   79  A    between atoms: _227  and  _228
REMARK   80  A    between atoms: _238  and  _240
REMARK   81  A    between atoms: _240  and  _241
REMARK   82  A    between atoms: _240  and  _243
REMARK   83  A    between atoms: _243  and  _244
REMARK   84  A    between atoms: _247  and  _249
REMARK   85  A    between atoms: _249  and  _250
REMARK   86  A    between atoms: _253  and  _255
REMARK   87  A    between atoms: _255  and  _256
REMARK   88  A    between atoms: _259  and  _261
REMARK   89  A    between atoms: _261  and  _262
REMARK   90  A    between atoms: _261  and  _264
REMARK   91  A    between atoms: _264  and  _265
REMARK   92  A    between atoms: _268  and  _270
REMARK   93  A    between atoms: _270  and  _271
REMARK   94  A    between atoms: _274  and  _276
REMARK   95  A    between atoms: _276  and  _277
REMARK   96  A    between atoms: _276  and  _279
REMARK   97  A    between atoms: _282  and  _284
REMARK   98  A    between atoms: _284  and  _285
REMARK   99  A    between atoms: _284  and  _287
REMARK  100  A    between atoms: _287  and  _288
REMARK  101  A    between atoms: _291  and  _293
REMARK  102  A    between atoms: _293  and  _294
REMARK  103  A    between atoms: _296  and  _298
REMARK  104  A    between atoms: _298  and  _299
REMARK  105  A    between atoms: _298  and  _301
REMARK  106  A    between atoms: _301  and  _302
REMARK  107  A    between atoms: _304  and  _306
REMARK  108  A    between atoms: _306  and  _307
REMARK  109  A    between atoms: _306  and  _309
REMARK  110  A    between atoms: _309  and  _310
REMARK  111  A    between atoms: _313  and  _315
REMARK  112  A    between atoms: _315  and  _316
REMARK  113  A    between atoms: _315  and  _318
REMARK  114  A    between atoms: _318  and  _319
REMARK  115  A    between atoms: _322  and  _324
REMARK  116  A    between atoms: _324  and  _325
REMARK  117  A    between atoms: _324  and  _327
REMARK  118  A    between atoms: _327  and  _328
REMARK  119  A    between atoms: _334  and  _335
REMARK  120  A    between atoms: _341  and  _342
REMARK  121  A    between atoms: _347  and  _349
REMARK  122  A    between atoms: _349  and  _350
REMARK  123  A    between atoms: _349  and  _352
REMARK  124  A    between atoms: _352  and  _353
REMARK  125  A    between atoms: _356  and  _358
REMARK  126  A    between atoms: _358  and  _359
REMARK  127  A    between atoms: _358  and  _361
REMARK  128  A    between atoms: _361  and  _362
REMARK  129  A    between atoms: _367  and  _368
REMARK  130  A    between atoms: _370  and  _372
REMARK  131  A    between atoms: _372  and  _373
REMARK  132  A    between atoms: _372  and  _375
REMARK  133  A    between atoms: _375  and  _376
REMARK  134  A    between atoms: _378  and  _380
REMARK  135  A    between atoms: _380  and  _381
REMARK  136  A    between atoms: _380  and  _383
REMARK  137  A    between atoms: _386  and  _388
REMARK  138  A    between atoms: _388  and  _389
REMARK  139  A    between atoms: _388  and  _391
REMARK  140  A    between atoms: _391  and  _392
REMARK  141  A    between atoms: _402  and  _404
REMARK  142  A    between atoms: _404  and  _405
REMARK  143  A    between atoms: _404  and  _407
REMARK  144  A    between atoms: _407  and  _408
REMARK  145  A    between atoms: _413  and  _415
REMARK  146  A    between atoms: _415  and  _416
REMARK  147  A    between atoms: _415  and  _418
REMARK  148  A    between atoms: _418  and  _419
REMARK  149  A    between atoms: _419  and  _420
REMARK  150  A    between atoms: _420  and  _421
REMARK                            x       y       z     vdW  Elec       q    Type
REMARK                         _______ _______ _______ _____ _____    ______ ____
ROOT
ATOM      1  O   HOH     1      42.078  18.536 -18.176  0.00  0.00    +0.000 OA
ENDROOT
TORSDOF 0
REMARK  Name = ../refined-set-2016/1azm/1azm_pocket.pdb
REMARK  150 active torsions:
REMARK  status: ('A' for Active; 'I' for Inactive)
REMARK    1  A    between atoms: _1  and  _3
REMARK    2  A    between atoms: _3  and  _4
REMARK    3  A    between atoms: _3  and  _6
REMARK    4  A    between atoms: _6  and  _7
REMARK    5  A    between atoms: _17  and  _19
REMARK    6  A    between atoms: _19  and  _20
REMARK    7  A    between atoms: _19  and  _22
REMARK    8  A    between atoms: _22  and  _23
REMARK    9  A    between atoms: _28  and  _29
REMARK   10  A    between atoms: _31  and  _33
REMARK   11  A    between atoms: _33  and  _34
REMARK   12  A    between atoms: _33  and  _36
REMARK   13  A    between atoms: _36  and  _37
REMARK   14  A    between atoms: _40  and  _41
REMARK   15  A    between atoms: _46  and  _48
REMARK   16  A    between atoms: _48  and  _49
REMARK   17  A    between atoms: _48  and  _51
REMARK   18  A    between atoms: _51  and  _52
REMARK   19  A    between atoms: _57  and  _59
REMARK   20  A    between atoms: _59  and  _60
REMARK   21  A    between atoms: _59  and  _62
REMARK   22  A    between atoms: _62  and  _63
REMARK   23  A    between atoms: _65  and  _67
REMARK   24  A    between atoms: _67  and  _68
REMARK   25  A    between atoms: _67  and  _70
REMARK   26  A    between atoms: _70  and  _71
REMARK   27  A    between atoms: _76  and  _78
REMARK   28  A    between atoms: _78  and  _79
REMARK   29  A    between atoms: _78  and  _81
REMARK   30  A    between atoms: _81  and  _82
REMARK   31  A    between atoms: _88  and  _90
REMARK   32  A    between atoms: _90  and  _91
REMARK   33  A    between atoms: _90  and  _93
REMARK   34  A    between atoms: _93  and  _94
REMARK   35  A    between atoms: _94  and  _95
REMARK   36  A    between atoms: _100  and  _102
REMARK   37  A    between atoms: _102  and  _103
REMARK   38  A    between atoms: _102  and  _105
REMARK   39  A    between atoms: _105  and  _106
REMARK   40  A    between atoms: _112  and  _114
REMARK   41  A    between atoms: _125  and  _128
REMARK   42  A    between atoms: _128  and  _129
REMARK   43  A    between atoms: _137  and  _138
REMARK   44  A    between atoms: _146  and  _148
REMARK   45  A    between atoms: _148  and  _149
REMARK   46  A    between atoms: _148  and  _151
REMARK   47  A    between atoms: _151  and  _152
REMARK   48  A    between atoms: _152  and  _153
REMARK   49  A    between atoms: _156  and  _158
REMARK   50  A    between atoms: _158  and  _159
REMARK   51  A    between atoms: _158  and  _161
REMARK   52  A    between atoms: _161  and  _162
REMARK   53  A    between atoms: _167  and  _169
REMARK   54  A    between atoms: _169  and  _170
REMARK   55  A    between atoms: _169  and  _172
REMARK   56  A    between atoms: _172  and  _173
REMARK   57  A    between atoms: _173  and  _174
REMARK   58  A    between atoms: _177  and  _179
REMARK   59  A    between atoms: _179  and  _180
REMARK   60  A    between atoms: _179  and  _182
REMARK   61  A    between atoms: _182  and  _183
REMARK   62  A    between atoms: _186  and  _188
REMARK   63  A    between atoms: _188  and  _189
REMARK   64  A    between atoms: _188  and  _191
REMARK   65  A    between atoms: _191  and  _192
REMARK   66  A    between atoms: _193  and  ZN_430
REMARK   67  A    between atoms: _197  and  _199
REMARK   68  A    between atoms: _199  and  _200
REMARK   69  A    between atoms: _199  and  _202
REMARK   70  A    between atoms: _205  and  _207
REMARK   71  A    between atoms: _207  and  _208
REMARK   72  A    between atoms: _211  and  _213
REMARK   73  A    between atoms: _213  and  _214
REMARK   74  A    between atoms: _213  and  _216
REMARK   75  A    between atoms: _216  and  _217
REMARK   76  A    between atoms: _222  and  _224
REMARK   77  A    between atoms: _224  and  _225
REMARK   78  A    between atoms: _224  and  _227
REMARK   79  A    between atoms: _227  and  _228
REMARK   80  A    between atoms: _238  and  _240
REMARK   81  A    between atoms: _240  and  _241
REMARK   82  A    between atoms: _240  and  _243
REMARK   83  A    between atoms: _243  and  _244
REMARK   84  A    between atoms: _247  and  _249
REMARK   85  A    between atoms: _249  and  _250
REMARK   86  A    between atoms: _253  and  _255
REMARK   87  A    between atoms: _255  and  _256
REMARK   88  A    between atoms: _259  and  _261
REMARK   89  A    between atoms: _261  and  _262
REMARK   90  A    between atoms: _261  and  _264
REMARK   91  A    between atoms: _264  and  _265
REMARK   92  A    between atoms: _268  and  _270
REMARK   93  A    between atoms: _270  and  _271
REMARK   94  A    between atoms: _274  and  _276
REMARK   95  A    between atoms: _276  and  _277
REMARK   96  A    between atoms: _276  and  _279
REMARK   97  A    between atoms: _282  and  _284
REMARK   98  A    between atoms: _284  and  _285
REMARK   99  A    between atoms: _284  and  _287
REMARK  100  A    between atoms: _287  and  _288
REMARK  101  A    between atoms: _291  and  _293
REMARK  102  A    between atoms: _293  and  _294
REMARK  103  A    between atoms: _296  and  _298
REMARK  104  A    between atoms: _298  and  _299
REMARK  105  A    between atoms: _298  and  _301
REMARK  106  A    between atoms: _301  and  _302
REMARK  107  A    between atoms: _304  and  _306
REMARK  108  A    between atoms: _306  and  _307
REMARK  109  A    between atoms: _306  and  _309
REMARK  110  A    between atoms: _309  and  _310
REMARK  111  A    between atoms: _313  and  _315
REMARK  112  A    between atoms: _315  and  _316
REMARK  113  A    between atoms: _315  and  _318
REMARK  114  A    between atoms: _318  and  _319
REMARK  115  A    between atoms: _322  and  _324
REMARK  116  A    between atoms: _324  and  _325
REMARK  117  A    between atoms: _324  and  _327
REMARK  118  A    between atoms: _327  and  _328
REMARK  119  A    between atoms: _334  and  _335
REMARK  120  A    between atoms: _341  and  _342
REMARK  121  A    between atoms: _347  and  _349
REMARK  122  A    between atoms: _349  and  _350
REMARK  123  A    between atoms: _349  and  _352
REMARK  124  A    between atoms: _352  and  _353
REMARK  125  A    between atoms: _356  and  _358
REMARK  126  A    between atoms: _358  and  _359
REMARK  127  A    between atoms: _358  and  _361
REMARK  128  A    between atoms: _361  and  _362
REMARK  129  A    between atoms: _367  and  _368
REMARK  130  A    between atoms: _370  and  _372
REMARK  131  A    between atoms: _372  and  _373
REMARK  132  A    between atoms: _372  and  _375
REMARK  133  A    between atoms: _375  and  _376
REMARK  134  A    between atoms: _378  and  _380
REMARK  135  A    between atoms: _380  and  _381
REMARK  136  A    between atoms: _380  and  _383
REMARK  137  A    between atoms: _386  and  _388
REMARK  138  A    between atoms: _388  and  _389
REMARK  139  A    between atoms: _388  and  _391
REMARK  140  A    between atoms: _391  and  _392
REMARK  141  A    between atoms: _402  and  _404
REMARK  142  A    between atoms: _404  and  _405
REMARK  143  A    between atoms: _404  and  _407
REMARK  144  A    between atoms: _407  and  _408
REMARK  145  A    between atoms: _413  and  _415
REMARK  146  A    between atoms: _415  and  _416
REMARK  147  A    between atoms: _415  and  _418
REMARK  148  A    between atoms: _418  and  _419
REMARK  149  A    between atoms: _419  and  _420
REMARK  150  A    between atoms: _420  and  _421
REMARK                            x       y       z     vdW  Elec       q    Type
REMARK                         _______ _______ _______ _____ _____    ______ ____
ROOT
ATOM      1  O   HOH     1      39.845  21.898 -16.195  0.00  0.00    +0.000 OA
ENDROOT
TORSDOF 0
REMARK  Name = ../refined-set-2016/1azm/1azm_pocket.pdb
REMARK  150 active torsions:
REMARK  status: ('A' for Active; 'I' for Inactive)
REMARK    1  A    between atoms: _1  and  _3
REMARK    2  A    between atoms: _3  and  _4
REMARK    3  A    between atoms: _3  and  _6
REMARK    4  A    between atoms: _6  and  _7
REMARK    5  A    between atoms: _17  and  _19
REMARK    6  A    between atoms: _19  and  _20
REMARK    7  A    between atoms: _19  and  _22
REMARK    8  A    between atoms: _22  and  _23
REMARK    9  A    between atoms: _28  and  _29
REMARK   10  A    between atoms: _31  and  _33
REMARK   11  A    between atoms: _33  and  _34
REMARK   12  A    between atoms: _33  and  _36
REMARK   13  A    between atoms: _36  and  _37
REMARK   14  A    between atoms: _40  and  _41
REMARK   15  A    between atoms: _46  and  _48
REMARK   16  A    between atoms: _48  and  _49
REMARK   17  A    between atoms: _48  and  _51
REMARK   18  A    between atoms: _51  and  _52
REMARK   19  A    between atoms: _57  and  _59
REMARK   20  A    between atoms: _59  and  _60
REMARK   21  A    between atoms: _59  and  _62
REMARK   22  A    between atoms: _62  and  _63
REMARK   23  A    between atoms: _65  and  _67
REMARK   24  A    between atoms: _67  and  _68
REMARK   25  A    between atoms: _67  and  _70
REMARK   26  A    between atoms: _70  and  _71
REMARK   27  A    between atoms: _76  and  _78
REMARK   28  A    between atoms: _78  and  _79
REMARK   29  A    between atoms: _78  and  _81
REMARK   30  A    between atoms: _81  and  _82
REMARK   31  A    between atoms: _88  and  _90
REMARK   32  A    between atoms: _90  and  _91
REMARK   33  A    between atoms: _90  and  _93
REMARK   34  A    between atoms: _93  and  _94
REMARK   35  A    between atoms: _94  and  _95
REMARK   36  A    between atoms: _100  and  _102
REMARK   37  A    between atoms: _102  and  _103
REMARK   38  A    between atoms: _102  and  _105
REMARK   39  A    between atoms: _105  and  _106
REMARK   40  A    between atoms: _112  and  _114
REMARK   41  A    between atoms: _125  and  _128
REMARK   42  A    between atoms: _128  and  _129
REMARK   43  A    between atoms: _137  and  _138
REMARK   44  A    between atoms: _146  and  _148
REMARK   45  A    between atoms: _148  and  _149
REMARK   46  A    between atoms: _148  and  _151
REMARK   47  A    between atoms: _151  and  _152
REMARK   48  A    between atoms: _152  and  _153
REMARK   49  A    between atoms: _156  and  _158
REMARK   50  A    between atoms: _158  and  _159
REMARK   51  A    between atoms: _158  and  _161
REMARK   52  A    between atoms: _161  and  _162
REMARK   53  A    between atoms: _167  and  _169
REMARK   54  A    between atoms: _169  and  _170
REMARK   55  A    between atoms: _169  and  _172
REMARK   56  A    between atoms: _172  and  _173
REMARK   57  A    between atoms: _173  and  _174
REMARK   58  A    between atoms: _177  and  _179
REMARK   59  A    between atoms: _179  and  _180
REMARK   60  A    between atoms: _179  and  _182
REMARK   61  A    between atoms: _182  and  _183
REMARK   62  A    between atoms: _186  and  _188
REMARK   63  A    between atoms: _188  and  _189
REMARK   64  A    between atoms: _188  and  _191
REMARK   65  A    between atoms: _191  and  _192
REMARK   66  A    between atoms: _193  and  ZN_430
REMARK   67  A    between atoms: _197  and  _199
REMARK   68  A    between atoms: _199  and  _200
REMARK   69  A    between atoms: _199  and  _202
REMARK   70  A    between atoms: _205  and  _207
REMARK   71  A    between atoms: _207  and  _208
REMARK   72  A    between atoms: _211  and  _213
REMARK   73  A    between atoms: _213  and  _214
REMARK   74  A    between atoms: _213  and  _216
REMARK   75  A    between atoms: _216  and  _217
REMARK   76  A    between atoms: _222  and  _224
REMARK   77  A    between atoms: _224  and  _225
REMARK   78  A    between atoms: _224  and  _227
REMARK   79  A    between atoms: _227  and  _228
REMARK   80  A    between atoms: _238  and  _240
REMARK   81  A    between atoms: _240  and  _241
REMARK   82  A    between atoms: _240  and  _243
REMARK   83  A    between atoms: _243  and  _244
REMARK   84  A    between atoms: _247  and  _249
REMARK   85  A    between atoms: _249  and  _250
REMARK   86  A    between atoms: _253  and  _255
REMARK   87  A    between atoms: _255  and  _256
REMARK   88  A    between atoms: _259  and  _261
REMARK   89  A    between atoms: _261  and  _262
REMARK   90  A    between atoms: _261  and  _264
REMARK   91  A    between atoms: _264  and  _265
REMARK   92  A    between atoms: _268  and  _270
REMARK   93  A    between atoms: _270  and  _271
REMARK   94  A    between atoms: _274  and  _276
REMARK   95  A    between atoms: _276  and  _277
REMARK   96  A    between atoms: _276  and  _279
REMARK   97  A    between atoms: _282  and  _284
REMARK   98  A    between atoms: _284  and  _285
REMARK   99  A    between atoms: _284  and  _287
REMARK  100  A    between atoms: _287  and  _288
REMARK  101  A    between atoms: _291  and  _293
REMARK  102  A    between atoms: _293  and  _294
REMARK  103  A    between atoms: _296  and  _298
REMARK  104  A    between atoms: _298  and  _299
REMARK  105  A    between atoms: _298  and  _301
REMARK  106  A    between atoms: _301  and  _302
REMARK  107  A    between atoms: _304  and  _306
REMARK  108  A    between atoms: _306  and  _307
REMARK  109  A    between atoms: _306  and  _309
REMARK  110  A    between atoms: _309  and  _310
REMARK  111  A    between atoms: _313  and  _315
REMARK  112  A    between atoms: _315  and  _316
REMARK  113  A    between atoms: _315  and  _318
REMARK  114  A    between atoms: _318  and  _319
REMARK  115  A    between atoms: _322  and  _324
REMARK  116  A    between atoms: _324  and  _325
REMARK  117  A    between atoms: _324  and  _327
REMARK  118  A    between atoms: _327  and  _328
REMARK  119  A    between atoms: _334  and  _335
REMARK  120  A    between atoms: _341  and  _342
REMARK  121  A    between atoms: _347  and  _349
REMARK  122  A    between atoms: _349  and  _350
REMARK  123  A    between atoms: _349  and  _352
REMARK  124  A    between atoms: _352  and  _353
REMARK  125  A    between atoms: _356  and  _358
REMARK  126  A    between atoms: _358  and  _359
REMARK  127  A    between atoms: _358  and  _361
REMARK  128  A    between atoms: _361  and  _362
REMARK  129  A    between atoms: _367  and  _368
REMARK  130  A    between atoms: _370  and  _372
REMARK  131  A    between atoms: _372  and  _373
REMARK  132  A    between atoms: _372  and  _375
REMARK  133  A    between atoms: _375  and  _376
REMARK  134  A    between atoms: _378  and  _380
REMARK  135  A    between atoms: _380  and  _381
REMARK  136  A    between atoms: _380  and  _383
REMARK  137  A    between atoms: _386  and  _388
REMARK  138  A    between atoms: _388  and  _389
REMARK  139  A    between atoms: _388  and  _391
REMARK  140  A    between atoms: _391  and  _392
REMARK  141  A    between atoms: _402  and  _404
REMARK  142  A    between atoms: _404  and  _405
REMARK  143  A    between atoms: _404  and  _407
REMARK  144  A    between atoms: _407  and  _408
REMARK  145  A    between atoms: _413  and  _415
REMARK  146  A    between atoms: _415  and  _416
REMARK  147  A    between atoms: _415  and  _418
REMARK  148  A    between atoms: _418  and  _419
REMARK  149  A    between atoms: _419  and  _420
REMARK  150  A    between atoms: _420  and  _421
REMARK                            x       y       z     vdW  Elec       q    Type
REMARK                         _______ _______ _______ _____ _____    ______ ____
ROOT
ATOM      1  O   HOH     1      41.874  16.024 -16.751  0.00  0.00    +0.000 OA
ENDROOT
TORSDOF 0
REMARK  Name = ../refined-set-2016/1azm/1azm_pocket.pdb
REMARK  150 active torsions:
REMARK  status: ('A' for Active; 'I' for Inactive)
REMARK    1  A    between atoms: _1  and  _3
REMARK    2  A    between atoms: _3  and  _4
REMARK    3  A    between atoms: _3  and  _6
REMARK    4  A    between atoms: _6  and  _7
REMARK    5  A    between atoms: _17  and  _19
REMARK    6  A    between atoms: _19  and  _20
REMARK    7  A    between atoms: _19  and  _22
REMARK    8  A    between atoms: _22  and  _23
REMARK    9  A    between atoms: _28  and  _29
REMARK   10  A    between atoms: _31  and  _33
REMARK   11  A    between atoms: _33  and  _34
REMARK   12  A    between atoms: _33  and  _36
REMARK   13  A    between atoms: _36  and  _37
REMARK   14  A    between atoms: _40  and  _41
REMARK   15  A    between atoms: _46  and  _48
REMARK   16  A    between atoms: _48  and  _49
REMARK   17  A    between atoms: _48  and  _51
REMARK   18  A    between atoms: _51  and  _52
REMARK   19  A    between atoms: _57  and  _59
REMARK   20  A    between atoms: _59  and  _60
REMARK   21  A    between atoms: _59  and  _62
REMARK   22  A    between atoms: _62  and  _63
REMARK   23  A    between atoms: _65  and  _67
REMARK   24  A    between atoms: _67  and  _68
REMARK   25  A    between atoms: _67  and  _70
REMARK   26  A    between atoms: _70  and  _71
REMARK   27  A    between atoms: _76  and  _78
REMARK   28  A    between atoms: _78  and  _79
REMARK   29  A    between atoms: _78  and  _81
REMARK   30  A    between atoms: _81  and  _82
REMARK   31  A    between atoms: _88  and  _90
REMARK   32  A    between atoms: _90  and  _91
REMARK   33  A    between atoms: _90  and  _93
REMARK   34  A    between atoms: _93  and  _94
REMARK   35  A    between atoms: _94  and  _95
REMARK   36  A    between atoms: _100  and  _102
REMARK   37  A    between atoms: _102  and  _103
REMARK   38  A    between atoms: _102  and  _105
REMARK   39  A    between atoms: _105  and  _106
REMARK   40  A    between atoms: _112  and  _114
REMARK   41  A    between atoms: _125  and  _128
REMARK   42  A    between atoms: _128  and  _129
REMARK   43  A    between atoms: _137  and  _138
REMARK   44  A    between atoms: _146  and  _148
REMARK   45  A    between atoms: _148  and  _149
REMARK   46  A    between atoms: _148  and  _151
REMARK   47  A    between atoms: _151  and  _152
REMARK   48  A    between atoms: _152  and  _153
REMARK   49  A    between atoms: _156  and  _158
REMARK   50  A    between atoms: _158  and  _159
REMARK   51  A    between atoms: _158  and  _161
REMARK   52  A    between atoms: _161  and  _162
REMARK   53  A    between atoms: _167  and  _169
REMARK   54  A    between atoms: _169  and  _170
REMARK   55  A    between atoms: _169  and  _172
REMARK   56  A    between atoms: _172  and  _173
REMARK   57  A    between atoms: _173  and  _174
REMARK   58  A    between atoms: _177  and  _179
REMARK   59  A    between atoms: _179  and  _180
REMARK   60  A    between atoms: _179  and  _182
REMARK   61  A    between atoms: _182  and  _183
REMARK   62  A    between atoms: _186  and  _188
REMARK   63  A    between atoms: _188  and  _189
REMARK   64  A    between atoms: _188  and  _191
REMARK   65  A    between atoms: _191  and  _192
REMARK   66  A    between atoms: _193  and  ZN_430
REMARK   67  A    between atoms: _197  and  _199
REMARK   68  A    between atoms: _199  and  _200
REMARK   69  A    between atoms: _199  and  _202
REMARK   70  A    between atoms: _205  and  _207
REMARK   71  A    between atoms: _207  and  _208
REMARK   72  A    between atoms: _211  and  _213
REMARK   73  A    between atoms: _213  and  _214
REMARK   74  A    between atoms: _213  and  _216
REMARK   75  A    between atoms: _216  and  _217
REMARK   76  A    between atoms: _222  and  _224
REMARK   77  A    between atoms: _224  and  _225
REMARK   78  A    between atoms: _224  and  _227
REMARK   79  A    between atoms: _227  and  _228
REMARK   80  A    between atoms: _238  and  _240
REMARK   81  A    between atoms: _240  and  _241
REMARK   82  A    between atoms: _240  and  _243
REMARK   83  A    between atoms: _243  and  _244
REMARK   84  A    between atoms: _247  and  _249
REMARK   85  A    between atoms: _249  and  _250
REMARK   86  A    between atoms: _253  and  _255
REMARK   87  A    between atoms: _255  and  _256
REMARK   88  A    between atoms: _259  and  _261
REMARK   89  A    between atoms: _261  and  _262
REMARK   90  A    between atoms: _261  and  _264
REMARK   91  A    between atoms: _264  and  _265
REMARK   92  A    between atoms: _268  and  _270
REMARK   93  A    between atoms: _270  and  _271
REMARK   94  A    between atoms: _274  and  _276
REMARK   95  A    between atoms: _276  and  _277
REMARK   96  A    between atoms: _276  and  _279
REMARK   97  A    between atoms: _282  and  _284
REMARK   98  A    between atoms: _284  and  _285
REMARK   99  A    between atoms: _284  and  _287
REMARK  100  A    between atoms: _287  and  _288
REMARK  101  A    between atoms: _291  and  _293
REMARK  102  A    between atoms: _293  and  _294
REMARK  103  A    between atoms: _296  and  _298
REMARK  104  A    between atoms: _298  and  _299
REMARK  105  A    between atoms: _298  and  _301
REMARK  106  A    between atoms: _301  and  _302
REMARK  107  A    between atoms: _304  and  _306
REMARK  108  A    between atoms: _306  and  _307
REMARK  109  A    between atoms: _306  and  _309
REMARK  110  A    between atoms: _309  and  _310
REMARK  111  A    between atoms: _313  and  _315
REMARK  112  A    between atoms: _315  and  _316
REMARK  113  A    between atoms: _315  and  _318
REMARK  114  A    between atoms: _318  and  _319
REMARK  115  A    between atoms: _322  and  _324
REMARK  116  A    between atoms: _324  and  _325
REMARK  117  A    between atoms: _324  and  _327
REMARK  118  A    between atoms: _327  and  _328
REMARK  119  A    between atoms: _334  and  _335
REMARK  120  A    between atoms: _341  and  _342
REMARK  121  A    between atoms: _347  and  _349
REMARK  122  A    between atoms: _349  and  _350
REMARK  123  A    between atoms: _349  and  _352
REMARK  124  A    between atoms: _352  and  _353
REMARK  125  A    between atoms: _356  and  _358
REMARK  126  A    between atoms: _358  and  _359
REMARK  127  A    between atoms: _358  and  _361
REMARK  128  A    between atoms: _361  and  _362
REMARK  129  A    between atoms: _367  and  _368
REMARK  130  A    between atoms: _370  and  _372
REMARK  131  A    between atoms: _372  and  _373
REMARK  132  A    between atoms: _372  and  _375
REMARK  133  A    between atoms: _375  and  _376
REMARK  134  A    between atoms: _378  and  _380
REMARK  135  A    between atoms: _380  and  _381
REMARK  136  A    between atoms: _380  and  _383
REMARK  137  A    between atoms: _386  and  _388
REMARK  138  A    between atoms: _388  and  _389
REMARK  139  A    between atoms: _388  and  _391
REMARK  140  A    between atoms: _391  and  _392
REMARK  141  A    between atoms: _402  and  _404
REMARK  142  A    between atoms: _404  and  _405
REMARK  143  A    between atoms: _404  and  _407
REMARK  144  A    between atoms: _407  and  _408
REMARK  145  A    between atoms: _413  and  _415
REMARK  146  A    between atoms: _415  and  _416
REMARK  147  A    between atoms: _415  and  _418
REMARK  148  A    between atoms: _418  and  _419
REMARK  149  A    between atoms: _419  and  _420
REMARK  150  A    between atoms: _420  and  _421
REMARK                            x       y       z     vdW  Elec       q    Type
REMARK                         _______ _______ _______ _____ _____    ______ ____
ROOT
ATOM      1  O   HOH     1      39.753  15.890 -18.747  0.00  0.00    +0.000 OA
ENDROOT
TORSDOF 0
REMARK  Name = ../refined-set-2016/1azm/1azm_pocket.pdb
REMARK  150 active torsions:
REMARK  status: ('A' for Active; 'I' for Inactive)
REMARK    1  A    between atoms: _1  and  _3
REMARK    2  A    between atoms: _3  and  _4
REMARK    3  A    between atoms: _3  and  _6
REMARK    4  A    between atoms: _6  and  _7
REMARK    5  A    between atoms: _17  and  _19
REMARK    6  A    between atoms: _19  and  _20
REMARK    7  A    between atoms: _19  and  _22
REMARK    8  A    between atoms: _22  and  _23
REMARK    9  A    between atoms: _28  and  _29
REMARK   10  A    between atoms: _31  and  _33
REMARK   11  A    between atoms: _33  and  _34
REMARK   12  A    between atoms: _33  and  _36
REMARK   13  A    between atoms: _36  and  _37
REMARK   14  A    between atoms: _40  and  _41
REMARK   15  A    between atoms: _46  and  _48
REMARK   16  A    between atoms: _48  and  _49
REMARK   17  A    between atoms: _48  and  _51
REMARK   18  A    between atoms: _51  and  _52
REMARK   19  A    between atoms: _57  and  _59
REMARK   20  A    between atoms: _59  and  _60
REMARK   21  A    between atoms: _59  and  _62
REMARK   22  A    between atoms: _62  and  _63
REMARK   23  A    between atoms: _65  and  _67
REMARK   24  A    between atoms: _67  and  _68
REMARK   25  A    between atoms: _67  and  _70
REMARK   26  A    between atoms: _70  and  _71
REMARK   27  A    between atoms: _76  and  _78
REMARK   28  A    between atoms: _78  and  _79
REMARK   29  A    between atoms: _78  and  _81
REMARK   30  A    between atoms: _81  and  _82
REMARK   31  A    between atoms: _88  and  _90
REMARK   32  A    between atoms: _90  and  _91
REMARK   33  A    between atoms: _90  and  _93
REMARK   34  A    between atoms: _93  and  _94
REMARK   35  A    between atoms: _94  and  _95
REMARK   36  A    between atoms: _100  and  _102
REMARK   37  A    between atoms: _102  and  _103
REMARK   38  A    between atoms: _102  and  _105
REMARK   39  A    between atoms: _105  and  _106
REMARK   40  A    between atoms: _112  and  _114
REMARK   41  A    between atoms: _125  and  _128
REMARK   42  A    between atoms: _128  and  _129
REMARK   43  A    between atoms: _137  and  _138
REMARK   44  A    between atoms: _146  and  _148
REMARK   45  A    between atoms: _148  and  _149
REMARK   46  A    between atoms: _148  and  _151
REMARK   47  A    between atoms: _151  and  _152
REMARK   48  A    between atoms: _152  and  _153
REMARK   49  A    between atoms: _156  and  _158
REMARK   50  A    between atoms: _158  and  _159
REMARK   51  A    between atoms: _158  and  _161
REMARK   52  A    between atoms: _161  and  _162
REMARK   53  A    between atoms: _167  and  _169
REMARK   54  A    between atoms: _169  and  _170
REMARK   55  A    between atoms: _169  and  _172
REMARK   56  A    between atoms: _172  and  _173
REMARK   57  A    between atoms: _173  and  _174
REMARK   58  A    between atoms: _177  and  _179
REMARK   59  A    between atoms: _179  and  _180
REMARK   60  A    between atoms: _179  and  _182
REMARK   61  A    between atoms: _182  and  _183
REMARK   62  A    between atoms: _186  and  _188
REMARK   63  A    between atoms: _188  and  _189
REMARK   64  A    between atoms: _188  and  _191
REMARK   65  A    between atoms: _191  and  _192
REMARK   66  A    between atoms: _193  and  ZN_430
REMARK   67  A    between atoms: _197  and  _199
REMARK   68  A    between atoms: _199  and  _200
REMARK   69  A    between atoms: _199  and  _202
REMARK   70  A    between atoms: _205  and  _207
REMARK   71  A    between atoms: _207  and  _208
REMARK   72  A    between atoms: _211  and  _213
REMARK   73  A    between atoms: _213  and  _214
REMARK   74  A    between atoms: _213  and  _216
REMARK   75  A    between atoms: _216  and  _217
REMARK   76  A    between atoms: _222  and  _224
REMARK   77  A    between atoms: _224  and  _225
REMARK   78  A    between atoms: _224  and  _227
REMARK   79  A    between atoms: _227  and  _228
REMARK   80  A    between atoms: _238  and  _240
REMARK   81  A    between atoms: _240  and  _241
REMARK   82  A    between atoms: _240  and  _243
REMARK   83  A    between atoms: _243  and  _244
REMARK   84  A    between atoms: _247  and  _249
REMARK   85  A    between atoms: _249  and  _250
REMARK   86  A    between atoms: _253  and  _255
REMARK   87  A    between atoms: _255  and  _256
REMARK   88  A    between atoms: _259  and  _261
REMARK   89  A    between atoms: _261  and  _262
REMARK   90  A    between atoms: _261  and  _264
REMARK   91  A    between atoms: _264  and  _265
REMARK   92  A    between atoms: _268  and  _270
REMARK   93  A    between atoms: _270  and  _271
REMARK   94  A    between atoms: _274  and  _276
REMARK   95  A    between atoms: _276  and  _277
REMARK   96  A    between atoms: _276  and  _279
REMARK   97  A    between atoms: _282  and  _284
REMARK   98  A    between atoms: _284  and  _285
REMARK   99  A    between atoms: _284  and  _287
REMARK  100  A    between atoms: _287  and  _288
REMARK  101  A    between atoms: _291  and  _293
REMARK  102  A    between atoms: _293  and  _294
REMARK  103  A    between atoms: _296  and  _298
REMARK  104  A    between atoms: _298  and  _299
REMARK  105  A    between atoms: _298  and  _301
REMARK  106  A    between atoms: _301  and  _302
REMARK  107  A    between atoms: _304  and  _306
REMARK  108  A    between atoms: _306  and  _307
REMARK  109  A    between atoms: _306  and  _309
REMARK  110  A    between atoms: _309  and  _310
REMARK  111  A    between atoms: _313  and  _315
REMARK  112  A    between atoms: _315  and  _316
REMARK  113  A    between atoms: _315  and  _318
REMARK  114  A    between atoms: _318  and  _319
REMARK  115  A    between atoms: _322  and  _324
REMARK  116  A    between atoms: _324  and  _325
REMARK  117  A    between atoms: _324  and  _327
REMARK  118  A    between atoms: _327  and  _328
REMARK  119  A    between atoms: _334  and  _335
REMARK  120  A    between atoms: _341  and  _342
REMARK  121  A    between atoms: _347  and  _349
REMARK  122  A    between atoms: _349  and  _350
REMARK  123  A    between atoms: _349  and  _352
REMARK  124  A    between atoms: _352  and  _353
REMARK  125  A    between atoms: _356  and  _358
REMARK  126  A    between atoms: _358  and  _359
REMARK  127  A    between atoms: _358  and  _361
REMARK  128  A    between atoms: _361  and  _362
REMARK  129  A    between atoms: _367  and  _368
REMARK  130  A    between atoms: _370  and  _372
REMARK  131  A    between atoms: _372  and  _373
REMARK  132  A    between atoms: _372  and  _375
REMARK  133  A    between atoms: _375  and  _376
REMARK  134  A    between atoms: _378  and  _380
REMARK  135  A    between atoms: _380  and  _381
REMARK  136  A    between atoms: _380  and  _383
REMARK  137  A    between atoms: _386  and  _388
REMARK  138  A    between atoms: _388  and  _389
REMARK  139  A    between atoms: _388  and  _391
REMARK  140  A    between atoms: _391  and  _392
REMARK  141  A    between atoms: _402  and  _404
REMARK  142  A    between atoms: _404  and  _405
REMARK  143  A    between atoms: _404  and  _407
REMARK  144  A    between atoms: _407  and  _408
REMARK  145  A    between atoms: _413  and  _415
REMARK  146  A    between atoms: _415  and  _416
REMARK  147  A    between atoms: _415  and  _418
REMARK  148  A    between atoms: _418  and  _419
REMARK  149  A    between atoms: _419  and  _420
REMARK  150  A    between atoms: _420  and  _421
REMARK                            x       y       z     vdW  Elec       q    Type
REMARK                         _______ _______ _______ _____ _____    ______ ____
ROOT
ATOM      1  O   HOH     1      34.893   8.524 -23.049  0.00  0.00    +0.000 OA
ENDROOT
TORSDOF 0
REMARK  Name = ../refined-set-2016/1azm/1azm_pocket.pdb
REMARK  150 active torsions:
REMARK  status: ('A' for Active; 'I' for Inactive)
REMARK    1  A    between atoms: _1  and  _3
REMARK    2  A    between atoms: _3  and  _4
REMARK    3  A    between atoms: _3  and  _6
REMARK    4  A    between atoms: _6  and  _7
REMARK    5  A    between atoms: _17  and  _19
REMARK    6  A    between atoms: _19  and  _20
REMARK    7  A    between atoms: _19  and  _22
REMARK    8  A    between atoms: _22  and  _23
REMARK    9  A    between atoms: _28  and  _29
REMARK   10  A    between atoms: _31  and  _33
REMARK   11  A    between atoms: _33  and  _34
REMARK   12  A    between atoms: _33  and  _36
REMARK   13  A    between atoms: _36  and  _37
REMARK   14  A    between atoms: _40  and  _41
REMARK   15  A    between atoms: _46  and  _48
REMARK   16  A    between atoms: _48  and  _49
REMARK   17  A    between atoms: _48  and  _51
REMARK   18  A    between atoms: _51  and  _52
REMARK   19  A    between atoms: _57  and  _59
REMARK   20  A    between atoms: _59  and  _60
REMARK   21  A    between atoms: _59  and  _62
REMARK   22  A    between atoms: _62  and  _63
REMARK   23  A    between atoms: _65  and  _67
REMARK   24  A    between atoms: _67  and  _68
REMARK   25  A    between atoms: _67  and  _70
REMARK   26  A    between atoms: _70  and  _71
REMARK   27  A    between atoms: _76  and  _78
REMARK   28  A    between atoms: _78  and  _79
REMARK   29  A    between atoms: _78  and  _81
REMARK   30  A    between atoms: _81  and  _82
REMARK   31  A    between atoms: _88  and  _90
REMARK   32  A    between atoms: _90  and  _91
REMARK   33  A    between atoms: _90  and  _93
REMARK   34  A    between atoms: _93  and  _94
REMARK   35  A    between atoms: _94  and  _95
REMARK   36  A    between atoms: _100  and  _102
REMARK   37  A    between atoms: _102  and  _103
REMARK   38  A    between atoms: _102  and  _105
REMARK   39  A    between atoms: _105  and  _106
REMARK   40  A    between atoms: _112  and  _114
REMARK   41  A    between atoms: _125  and  _128
REMARK   42  A    between atoms: _128  and  _129
REMARK   43  A    between atoms: _137  and  _138
REMARK   44  A    between atoms: _146  and  _148
REMARK   45  A    between atoms: _148  and  _149
REMARK   46  A    between atoms: _148  and  _151
REMARK   47  A    between atoms: _151  and  _152
REMARK   48  A    between atoms: _152  and  _153
REMARK   49  A    between atoms: _156  and  _158
REMARK   50  A    between atoms: _158  and  _159
REMARK   51  A    between atoms: _158  and  _161
REMARK   52  A    between atoms: _161  and  _162
REMARK   53  A    between atoms: _167  and  _169
REMARK   54  A    between atoms: _169  and  _170
REMARK   55  A    between atoms: _169  and  _172
REMARK   56  A    between atoms: _172  and  _173
REMARK   57  A    between atoms: _173  and  _174
REMARK   58  A    between atoms: _177  and  _179
REMARK   59  A    between atoms: _179  and  _180
REMARK   60  A    between atoms: _179  and  _182
REMARK   61  A    between atoms: _182  and  _183
REMARK   62  A    between atoms: _186  and  _188
REMARK   63  A    between atoms: _188  and  _189
REMARK   64  A    between atoms: _188  and  _191
REMARK   65  A    between atoms: _191  and  _192
REMARK   66  A    between atoms: _193  and  ZN_430
REMARK   67  A    between atoms: _197  and  _199
REMARK   68  A    between atoms: _199  and  _200
REMARK   69  A    between atoms: _199  and  _202
REMARK   70  A    between atoms: _205  and  _207
REMARK   71  A    between atoms: _207  and  _208
REMARK   72  A    between atoms: _211  and  _213
REMARK   73  A    between atoms: _213  and  _214
REMARK   74  A    between atoms: _213  and  _216
REMARK   75  A    between atoms: _216  and  _217
REMARK   76  A    between atoms: _222  and  _224
REMARK   77  A    between atoms: _224  and  _225
REMARK   78  A    between atoms: _224  and  _227
REMARK   79  A    between atoms: _227  and  _228
REMARK   80  A    between atoms: _238  and  _240
REMARK   81  A    between atoms: _240  and  _241
REMARK   82  A    between atoms: _240  and  _243
REMARK   83  A    between atoms: _243  and  _244
REMARK   84  A    between atoms: _247  and  _249
REMARK   85  A    between atoms: _249  and  _250
REMARK   86  A    between atoms: _253  and  _255
REMARK   87  A    between atoms: _255  and  _256
REMARK   88  A    between atoms: _259  and  _261
REMARK   89  A    between atoms: _261  and  _262
REMARK   90  A    between atoms: _261  and  _264
REMARK   91  A    between atoms: _264  and  _265
REMARK   92  A    between atoms: _268  and  _270
REMARK   93  A    between atoms: _270  and  _271
REMARK   94  A    between atoms: _274  and  _276
REMARK   95  A    between atoms: _276  and  _277
REMARK   96  A    between atoms: _276  and  _279
REMARK   97  A    between atoms: _282  and  _284
REMARK   98  A    between atoms: _284  and  _285
REMARK   99  A    between atoms: _284  and  _287
REMARK  100  A    between atoms: _287  and  _288
REMARK  101  A    between atoms: _291  and  _293
REMARK  102  A    between atoms: _293  and  _294
REMARK  103  A    between atoms: _296  and  _298
REMARK  104  A    between atoms: _298  and  _299
REMARK  105  A    between atoms: _298  and  _301
REMARK  106  A    between atoms: _301  and  _302
REMARK  107  A    between atoms: _304  and  _306
REMARK  108  A    between atoms: _306  and  _307
REMARK  109  A    between atoms: _306  and  _309
REMARK  110  A    between atoms: _309  and  _310
REMARK  111  A    between atoms: _313  and  _315
REMARK  112  A    between atoms: _315  and  _316
REMARK  113  A    between atoms: _315  and  _318
REMARK  114  A    between atoms: _318  and  _319
REMARK  115  A    between atoms: _322  and  _324
REMARK  116  A    between atoms: _324  and  _325
REMARK  117  A    between atoms: _324  and  _327
REMARK  118  A    between atoms: _327  and  _328
REMARK  119  A    between atoms: _334  and  _335
REMARK  120  A    between atoms: _341  and  _342
REMARK  121  A    between atoms: _347  and  _349
REMARK  122  A    between atoms: _349  and  _350
REMARK  123  A    between atoms: _349  and  _352
REMARK  124  A    between atoms: _352  and  _353
REMARK  125  A    between atoms: _356  and  _358
REMARK  126  A    between atoms: _358  and  _359
REMARK  127  A    between atoms: _358  and  _361
REMARK  128  A    between atoms: _361  and  _362
REMARK  129  A    between atoms: _367  and  _368
REMARK  130  A    between atoms: _370  and  _372
REMARK  131  A    between atoms: _372  and  _373
REMARK  132  A    between atoms: _372  and  _375
REMARK  133  A    between atoms: _375  and  _376
REMARK  134  A    between atoms: _378  and  _380
REMARK  135  A    between atoms: _380  and  _381
REMARK  136  A    between atoms: _380  and  _383
REMARK  137  A    between atoms: _386  and  _388
REMARK  138  A    between atoms: _388  and  _389
REMARK  139  A    between atoms: _388  and  _391
REMARK  140  A    between atoms: _391  and  _392
REMARK  141  A    between atoms: _402  and  _404
REMARK  142  A    between atoms: _404  and  _405
REMARK  143  A    between atoms: _404  and  _407
REMARK  144  A    between atoms: _407  and  _408
REMARK  145  A    between atoms: _413  and  _415
REMARK  146  A    between atoms: _415  and  _416
REMARK  147  A    between atoms: _415  and  _418
REMARK  148  A    between atoms: _418  and  _419
REMARK  149  A    between atoms: _419  and  _420
REMARK  150  A    between atoms: _420  and  _421
REMARK                            x       y       z     vdW  Elec       q    Type
REMARK                         _______ _______ _______ _____ _____    ______ ____
ROOT
ATOM      1  O   HOH     1      34.294  16.772 -23.821  0.00  0.00    +0.000 OA
ENDROOT
TORSDOF 0
REMARK  Name = ../refined-set-2016/1azm/1azm_pocket.pdb
REMARK  150 active torsions:
REMARK  status: ('A' for Active; 'I' for Inactive)
REMARK    1  A    between atoms: _1  and  _3
REMARK    2  A    between atoms: _3  and  _4
REMARK    3  A    between atoms: _3  and  _6
REMARK    4  A    between atoms: _6  and  _7
REMARK    5  A    between atoms: _17  and  _19
REMARK    6  A    between atoms: _19  and  _20
REMARK    7  A    between atoms: _19  and  _22
REMARK    8  A    between atoms: _22  and  _23
REMARK    9  A    between atoms: _28  and  _29
REMARK   10  A    between atoms: _31  and  _33
REMARK   11  A    between atoms: _33  and  _34
REMARK   12  A    between atoms: _33  and  _36
REMARK   13  A    between atoms: _36  and  _37
REMARK   14  A    between atoms: _40  and  _41
REMARK   15  A    between atoms: _46  and  _48
REMARK   16  A    between atoms: _48  and  _49
REMARK   17  A    between atoms: _48  and  _51
REMARK   18  A    between atoms: _51  and  _52
REMARK   19  A    between atoms: _57  and  _59
REMARK   20  A    between atoms: _59  and  _60
REMARK   21  A    between atoms: _59  and  _62
REMARK   22  A    between atoms: _62  and  _63
REMARK   23  A    between atoms: _65  and  _67
REMARK   24  A    between atoms: _67  and  _68
REMARK   25  A    between atoms: _67  and  _70
REMARK   26  A    between atoms: _70  and  _71
REMARK   27  A    between atoms: _76  and  _78
REMARK   28  A    between atoms: _78  and  _79
REMARK   29  A    between atoms: _78  and  _81
REMARK   30  A    between atoms: _81  and  _82
REMARK   31  A    between atoms: _88  and  _90
REMARK   32  A    between atoms: _90  and  _91
REMARK   33  A    between atoms: _90  and  _93
REMARK   34  A    between atoms: _93  and  _94
REMARK   35  A    between atoms: _94  and  _95
REMARK   36  A    between atoms: _100  and  _102
REMARK   37  A    between atoms: _102  and  _103
REMARK   38  A    between atoms: _102  and  _105
REMARK   39  A    between atoms: _105  and  _106
REMARK   40  A    between atoms: _112  and  _114
REMARK   41  A    between atoms: _125  and  _128
REMARK   42  A    between atoms: _128  and  _129
REMARK   43  A    between atoms: _137  and  _138
REMARK   44  A    between atoms: _146  and  _148
REMARK   45  A    between atoms: _148  and  _149
REMARK   46  A    between atoms: _148  and  _151
REMARK   47  A    between atoms: _151  and  _152
REMARK   48  A    between atoms: _152  and  _153
REMARK   49  A    between atoms: _156  and  _158
REMARK   50  A    between atoms: _158  and  _159
REMARK   51  A    between atoms: _158  and  _161
REMARK   52  A    between atoms: _161  and  _162
REMARK   53  A    between atoms: _167  and  _169
REMARK   54  A    between atoms: _169  and  _170
REMARK   55  A    between atoms: _169  and  _172
REMARK   56  A    between atoms: _172  and  _173
REMARK   57  A    between atoms: _173  and  _174
REMARK   58  A    between atoms: _177  and  _179
REMARK   59  A    between atoms: _179  and  _180
REMARK   60  A    between atoms: _179  and  _182
REMARK   61  A    between atoms: _182  and  _183
REMARK   62  A    between atoms: _186  and  _188
REMARK   63  A    between atoms: _188  and  _189
REMARK   64  A    between atoms: _188  and  _191
REMARK   65  A    between atoms: _191  and  _192
REMARK   66  A    between atoms: _193  and  ZN_430
REMARK   67  A    between atoms: _197  and  _199
REMARK   68  A    between atoms: _199  and  _200
REMARK   69  A    between atoms: _199  and  _202
REMARK   70  A    between atoms: _205  and  _207
REMARK   71  A    between atoms: _207  and  _208
REMARK   72  A    between atoms: _211  and  _213
REMARK   73  A    between atoms: _213  and  _214
REMARK   74  A    between atoms: _213  and  _216
REMARK   75  A    between atoms: _216  and  _217
REMARK   76  A    between atoms: _222  and  _224
REMARK   77  A    between atoms: _224  and  _225
REMARK   78  A    between atoms: _224  and  _227
REMARK   79  A    between atoms: _227  and  _228
REMARK   80  A    between atoms: _238  and  _240
REMARK   81  A    between atoms: _240  and  _241
REMARK   82  A    between atoms: _240  and  _243
REMARK   83  A    between atoms: _243  and  _244
REMARK   84  A    between atoms: _247  and  _249
REMARK   85  A    between atoms: _249  and  _250
REMARK   86  A    between atoms: _253  and  _255
REMARK   87  A    between atoms: _255  and  _256
REMARK   88  A    between atoms: _259  and  _261
REMARK   89  A    between atoms: _261  and  _262
REMARK   90  A    between atoms: _261  and  _264
REMARK   91  A    between atoms: _264  and  _265
REMARK   92  A    between atoms: _268  and  _270
REMARK   93  A    between atoms: _270  and  _271
REMARK   94  A    between atoms: _274  and  _276
REMARK   95  A    between atoms: _276  and  _277
REMARK   96  A    between atoms: _276  and  _279
REMARK   97  A    between atoms: _282  and  _284
REMARK   98  A    between atoms: _284  and  _285
REMARK   99  A    between atoms: _284  and  _287
REMARK  100  A    between atoms: _287  and  _288
REMARK  101  A    between atoms: _291  and  _293
REMARK  102  A    between atoms: _293  and  _294
REMARK  103  A    between atoms: _296  and  _298
REMARK  104  A    between atoms: _298  and  _299
REMARK  105  A    between atoms: _298  and  _301
REMARK  106  A    between atoms: _301  and  _302
REMARK  107  A    between atoms: _304  and  _306
REMARK  108  A    between atoms: _306  and  _307
REMARK  109  A    between atoms: _306  and  _309
REMARK  110  A    between atoms: _309  and  _310
REMARK  111  A    between atoms: _313  and  _315
REMARK  112  A    between atoms: _315  and  _316
REMARK  113  A    between atoms: _315  and  _318
REMARK  114  A    between atoms: _318  and  _319
REMARK  115  A    between atoms: _322  and  _324
REMARK  116  A    between atoms: _324  and  _325
REMARK  117  A    between atoms: _324  and  _327
REMARK  118  A    between atoms: _327  and  _328
REMARK  119  A    between atoms: _334  and  _335
REMARK  120  A    between atoms: _341  and  _342
REMARK  121  A    between atoms: _347  and  _349
REMARK  122  A    between atoms: _349  and  _350
REMARK  123  A    between atoms: _349  and  _352
REMARK  124  A    between atoms: _352  and  _353
REMARK  125  A    between atoms: _356  and  _358
REMARK  126  A    between atoms: _358  and  _359
REMARK  127  A    between atoms: _358  and  _361
REMARK  128  A    between atoms: _361  and  _362
REMARK  129  A    between atoms: _367  and  _368
REMARK  130  A    between atoms: _370  and  _372
REMARK  131  A    between atoms: _372  and  _373
REMARK  132  A    between atoms: _372  and  _375
REMARK  133  A    between atoms: _375  and  _376
REMARK  134  A    between atoms: _378  and  _380
REMARK  135  A    between atoms: _380  and  _381
REMARK  136  A    between atoms: _380  and  _383
REMARK  137  A    between atoms: _386  and  _388
REMARK  138  A    between atoms: _388  and  _389
REMARK  139  A    between atoms: _388  and  _391
REMARK  140  A    between atoms: _391  and  _392
REMARK  141  A    between atoms: _402  and  _404
REMARK  142  A    between atoms: _404  and  _405
REMARK  143  A    between atoms: _404  and  _407
REMARK  144  A    between atoms: _407  and  _408
REMARK  145  A    between atoms: _413  and  _415
REMARK  146  A    between atoms: _415  and  _416
REMARK  147  A    between atoms: _415  and  _418
REMARK  148  A    between atoms: _418  and  _419
REMARK  149  A    between atoms: _419  and  _420
REMARK  150  A    between atoms: _420  and  _421
REMARK                            x       y       z     vdW  Elec       q    Type
REMARK                         _______ _______ _______ _____ _____    ______ ____
ROOT
ATOM      1  O   HOH     1      39.722  15.840 -24.019  0.00  0.00    +0.000 OA
ENDROOT
TORSDOF 0
REMARK  Name = ../refined-set-2016/1azm/1azm_pocket.pdb
REMARK  150 active torsions:
REMARK  status: ('A' for Active; 'I' for Inactive)
REMARK    1  A    between atoms: _1  and  _3
REMARK    2  A    between atoms: _3  and  _4
REMARK    3  A    between atoms: _3  and  _6
REMARK    4  A    between atoms: _6  and  _7
REMARK    5  A    between atoms: _17  and  _19
REMARK    6  A    between atoms: _19  and  _20
REMARK    7  A    between atoms: _19  and  _22
REMARK    8  A    between atoms: _22  and  _23
REMARK    9  A    between atoms: _28  and  _29
REMARK   10  A    between atoms: _31  and  _33
REMARK   11  A    between atoms: _33  and  _34
REMARK   12  A    between atoms: _33  and  _36
REMARK   13  A    between atoms: _36  and  _37
REMARK   14  A    between atoms: _40  and  _41
REMARK   15  A    between atoms: _46  and  _48
REMARK   16  A    between atoms: _48  and  _49
REMARK   17  A    between atoms: _48  and  _51
REMARK   18  A    between atoms: _51  and  _52
REMARK   19  A    between atoms: _57  and  _59
REMARK   20  A    between atoms: _59  and  _60
REMARK   21  A    between atoms: _59  and  _62
REMARK   22  A    between atoms: _62  and  _63
REMARK   23  A    between atoms: _65  and  _67
REMARK   24  A    between atoms: _67  and  _68
REMARK   25  A    between atoms: _67  and  _70
REMARK   26  A    between atoms: _70  and  _71
REMARK   27  A    between atoms: _76  and  _78
REMARK   28  A    between atoms: _78  and  _79
REMARK   29  A    between atoms: _78  and  _81
REMARK   30  A    between atoms: _81  and  _82
REMARK   31  A    between atoms: _88  and  _90
REMARK   32  A    between atoms: _90  and  _91
REMARK   33  A    between atoms: _90  and  _93
REMARK   34  A    between atoms: _93  and  _94
REMARK   35  A    between atoms: _94  and  _95
REMARK   36  A    between atoms: _100  and  _102
REMARK   37  A    between atoms: _102  and  _103
REMARK   38  A    between atoms: _102  and  _105
REMARK   39  A    between atoms: _105  and  _106
REMARK   40  A    between atoms: _112  and  _114
REMARK   41  A    between atoms: _125  and  _128
REMARK   42  A    between atoms: _128  and  _129
REMARK   43  A    between atoms: _137  and  _138
REMARK   44  A    between atoms: _146  and  _148
REMARK   45  A    between atoms: _148  and  _149
REMARK   46  A    between atoms: _148  and  _151
REMARK   47  A    between atoms: _151  and  _152
REMARK   48  A    between atoms: _152  and  _153
REMARK   49  A    between atoms: _156  and  _158
REMARK   50  A    between atoms: _158  and  _159
REMARK   51  A    between atoms: _158  and  _161
REMARK   52  A    between atoms: _161  and  _162
REMARK   53  A    between atoms: _167  and  _169
REMARK   54  A    between atoms: _169  and  _170
REMARK   55  A    between atoms: _169  and  _172
REMARK   56  A    between atoms: _172  and  _173
REMARK   57  A    between atoms: _173  and  _174
REMARK   58  A    between atoms: _177  and  _179
REMARK   59  A    between atoms: _179  and  _180
REMARK   60  A    between atoms: _179  and  _182
REMARK   61  A    between atoms: _182  and  _183
REMARK   62  A    between atoms: _186  and  _188
REMARK   63  A    between atoms: _188  and  _189
REMARK   64  A    between atoms: _188  and  _191
REMARK   65  A    between atoms: _191  and  _192
REMARK   66  A    between atoms: _193  and  ZN_430
REMARK   67  A    between atoms: _197  and  _199
REMARK   68  A    between atoms: _199  and  _200
REMARK   69  A    between atoms: _199  and  _202
REMARK   70  A    between atoms: _205  and  _207
REMARK   71  A    between atoms: _207  and  _208
REMARK   72  A    between atoms: _211  and  _213
REMARK   73  A    between atoms: _213  and  _214
REMARK   74  A    between atoms: _213  and  _216
REMARK   75  A    between atoms: _216  and  _217
REMARK   76  A    between atoms: _222  and  _224
REMARK   77  A    between atoms: _224  and  _225
REMARK   78  A    between atoms: _224  and  _227
REMARK   79  A    between atoms: _227  and  _228
REMARK   80  A    between atoms: _238  and  _240
REMARK   81  A    between atoms: _240  and  _241
REMARK   82  A    between atoms: _240  and  _243
REMARK   83  A    between atoms: _243  and  _244
REMARK   84  A    between atoms: _247  and  _249
REMARK   85  A    between atoms: _249  and  _250
REMARK   86  A    between atoms: _253  and  _255
REMARK   87  A    between atoms: _255  and  _256
REMARK   88  A    between atoms: _259  and  _261
REMARK   89  A    between atoms: _261  and  _262
REMARK   90  A    between atoms: _261  and  _264
REMARK   91  A    between atoms: _264  and  _265
REMARK   92  A    between atoms: _268  and  _270
REMARK   93  A    between atoms: _270  and  _271
REMARK   94  A    between atoms: _274  and  _276
REMARK   95  A    between atoms: _276  and  _277
REMARK   96  A    between atoms: _276  and  _279
REMARK   97  A    between atoms: _282  and  _284
REMARK   98  A    between atoms: _284  and  _285
REMARK   99  A    between atoms: _284  and  _287
REMARK  100  A    between atoms: _287  and  _288
REMARK  101  A    between atoms: _291  and  _293
REMARK  102  A    between atoms: _293  and  _294
REMARK  103  A    between atoms: _296  and  _298
REMARK  104  A    between atoms: _298  and  _299
REMARK  105  A    between atoms: _298  and  _301
REMARK  106  A    between atoms: _301  and  _302
REMARK  107  A    between atoms: _304  and  _306
REMARK  108  A    between atoms: _306  and  _307
REMARK  109  A    between atoms: _306  and  _309
REMARK  110  A    between atoms: _309  and  _310
REMARK  111  A    between atoms: _313  and  _315
REMARK  112  A    between atoms: _315  and  _316
REMARK  113  A    between atoms: _315  and  _318
REMARK  114  A    between atoms: _318  and  _319
REMARK  115  A    between atoms: _322  and  _324
REMARK  116  A    between atoms: _324  and  _325
REMARK  117  A    between atoms: _324  and  _327
REMARK  118  A    between atoms: _327  and  _328
REMARK  119  A    between atoms: _334  and  _335
REMARK  120  A    between atoms: _341  and  _342
REMARK  121  A    between atoms: _347  and  _349
REMARK  122  A    between atoms: _349  and  _350
REMARK  123  A    between atoms: _349  and  _352
REMARK  124  A    between atoms: _352  and  _353
REMARK  125  A    between atoms: _356  and  _358
REMARK  126  A    between atoms: _358  and  _359
REMARK  127  A    between atoms: _358  and  _361
REMARK  128  A    between atoms: _361  and  _362
REMARK  129  A    between atoms: _367  and  _368
REMARK  130  A    between atoms: _370  and  _372
REMARK  131  A    between atoms: _372  and  _373
REMARK  132  A    between atoms: _372  and  _375
REMARK  133  A    between atoms: _375  and  _376
REMARK  134  A    between atoms: _378  and  _380
REMARK  135  A    between atoms: _380  and  _381
REMARK  136  A    between atoms: _380  and  _383
REMARK  137  A    between atoms: _386  and  _388
REMARK  138  A    between atoms: _388  and  _389
REMARK  139  A    between atoms: _388  and  _391
REMARK  140  A    between atoms: _391  and  _392
REMARK  141  A    between atoms: _402  and  _404
REMARK  142  A    between atoms: _404  and  _405
REMARK  143  A    between atoms: _404  and  _407
REMARK  144  A    between atoms: _407  and  _408
REMARK  145  A    between atoms: _413  and  _415
REMARK  146  A    between atoms: _415  and  _416
REMARK  147  A    between atoms: _415  and  _418
REMARK  148  A    between atoms: _418  and  _419
REMARK  149  A    between atoms: _419  and  _420
REMARK  150  A    between atoms: _420  and  _421
REMARK                            x       y       z     vdW  Elec       q    Type
REMARK                         _______ _______ _______ _____ _____    ______ ____
ROOT
ATOM      1  O   HOH     1      38.802  10.090 -23.789  0.00  0.00    +0.000 OA
ENDROOT
TORSDOF 0
REMARK  Name = ../refined-set-2016/1azm/1azm_pocket.pdb
REMARK  150 active torsions:
REMARK  status: ('A' for Active; 'I' for Inactive)
REMARK    1  A    between atoms: _1  and  _3
REMARK    2  A    between atoms: _3  and  _4
REMARK    3  A    between atoms: _3  and  _6
REMARK    4  A    between atoms: _6  and  _7
REMARK    5  A    between atoms: _17  and  _19
REMARK    6  A    between atoms: _19  and  _20
REMARK    7  A    between atoms: _19  and  _22
REMARK    8  A    between atoms: _22  and  _23
REMARK    9  A    between atoms: _28  and  _29
REMARK   10  A    between atoms: _31  and  _33
REMARK   11  A    between atoms: _33  and  _34
REMARK   12  A    between atoms: _33  and  _36
REMARK   13  A    between atoms: _36  and  _37
REMARK   14  A    between atoms: _40  and  _41
REMARK   15  A    between atoms: _46  and  _48
REMARK   16  A    between atoms: _48  and  _49
REMARK   17  A    between atoms: _48  and  _51
REMARK   18  A    between atoms: _51  and  _52
REMARK   19  A    between atoms: _57  and  _59
REMARK   20  A    between atoms: _59  and  _60
REMARK   21  A    between atoms: _59  and  _62
REMARK   22  A    between atoms: _62  and  _63
REMARK   23  A    between atoms: _65  and  _67
REMARK   24  A    between atoms: _67  and  _68
REMARK   25  A    between atoms: _67  and  _70
REMARK   26  A    between atoms: _70  and  _71
REMARK   27  A    between atoms: _76  and  _78
REMARK   28  A    between atoms: _78  and  _79
REMARK   29  A    between atoms: _78  and  _81
REMARK   30  A    between atoms: _81  and  _82
REMARK   31  A    between atoms: _88  and  _90
REMARK   32  A    between atoms: _90  and  _91
REMARK   33  A    between atoms: _90  and  _93
REMARK   34  A    between atoms: _93  and  _94
REMARK   35  A    between atoms: _94  and  _95
REMARK   36  A    between atoms: _100  and  _102
REMARK   37  A    between atoms: _102  and  _103
REMARK   38  A    between atoms: _102  and  _105
REMARK   39  A    between atoms: _105  and  _106
REMARK   40  A    between atoms: _112  and  _114
REMARK   41  A    between atoms: _125  and  _128
REMARK   42  A    between atoms: _128  and  _129
REMARK   43  A    between atoms: _137  and  _138
REMARK   44  A    between atoms: _146  and  _148
REMARK   45  A    between atoms: _148  and  _149
REMARK   46  A    between atoms: _148  and  _151
REMARK   47  A    between atoms: _151  and  _152
REMARK   48  A    between atoms: _152  and  _153
REMARK   49  A    between atoms: _156  and  _158
REMARK   50  A    between atoms: _158  and  _159
REMARK   51  A    between atoms: _158  and  _161
REMARK   52  A    between atoms: _161  and  _162
REMARK   53  A    between atoms: _167  and  _169
REMARK   54  A    between atoms: _169  and  _170
REMARK   55  A    between atoms: _169  and  _172
REMARK   56  A    between atoms: _172  and  _173
REMARK   57  A    between atoms: _173  and  _174
REMARK   58  A    between atoms: _177  and  _179
REMARK   59  A    between atoms: _179  and  _180
REMARK   60  A    between atoms: _179  and  _182
REMARK   61  A    between atoms: _182  and  _183
REMARK   62  A    between atoms: _186  and  _188
REMARK   63  A    between atoms: _188  and  _189
REMARK   64  A    between atoms: _188  and  _191
REMARK   65  A    between atoms: _191  and  _192
REMARK   66  A    between atoms: _193  and  ZN_430
REMARK   67  A    between atoms: _197  and  _199
REMARK   68  A    between atoms: _199  and  _200
REMARK   69  A    between atoms: _199  and  _202
REMARK   70  A    between atoms: _205  and  _207
REMARK   71  A    between atoms: _207  and  _208
REMARK   72  A    between atoms: _211  and  _213
REMARK   73  A    between atoms: _213  and  _214
REMARK   74  A    between atoms: _213  and  _216
REMARK   75  A    between atoms: _216  and  _217
REMARK   76  A    between atoms: _222  and  _224
REMARK   77  A    between atoms: _224  and  _225
REMARK   78  A    between atoms: _224  and  _227
REMARK   79  A    between atoms: _227  and  _228
REMARK   80  A    between atoms: _238  and  _240
REMARK   81  A    between atoms: _240  and  _241
REMARK   82  A    between atoms: _240  and  _243
REMARK   83  A    between atoms: _243  and  _244
REMARK   84  A    between atoms: _247  and  _249
REMARK   85  A    between atoms: _249  and  _250
REMARK   86  A    between atoms: _253  and  _255
REMARK   87  A    between atoms: _255  and  _256
REMARK   88  A    between atoms: _259  and  _261
REMARK   89  A    between atoms: _261  and  _262
REMARK   90  A    between atoms: _261  and  _264
REMARK   91  A    between atoms: _264  and  _265
REMARK   92  A    between atoms: _268  and  _270
REMARK   93  A    between atoms: _270  and  _271
REMARK   94  A    between atoms: _274  and  _276
REMARK   95  A    between atoms: _276  and  _277
REMARK   96  A    between atoms: _276  and  _279
REMARK   97  A    between atoms: _282  and  _284
REMARK   98  A    between atoms: _284  and  _285
REMARK   99  A    between atoms: _284  and  _287
REMARK  100  A    between atoms: _287  and  _288
REMARK  101  A    between atoms: _291  and  _293
REMARK  102  A    between atoms: _293  and  _294
REMARK  103  A    between atoms: _296  and  _298
REMARK  104  A    between atoms: _298  and  _299
REMARK  105  A    between atoms: _298  and  _301
REMARK  106  A    between atoms: _301  and  _302
REMARK  107  A    between atoms: _304  and  _306
REMARK  108  A    between atoms: _306  and  _307
REMARK  109  A    between atoms: _306  and  _309
REMARK  110  A    between atoms: _309  and  _310
REMARK  111  A    between atoms: _313  and  _315
REMARK  112  A    between atoms: _315  and  _316
REMARK  113  A    between atoms: _315  and  _318
REMARK  114  A    between atoms: _318  and  _319
REMARK  115  A    between atoms: _322  and  _324
REMARK  116  A    between atoms: _324  and  _325
REMARK  117  A    between atoms: _324  and  _327
REMARK  118  A    between atoms: _327  and  _328
REMARK  119  A    between atoms: _334  and  _335
REMARK  120  A    between atoms: _341  and  _342
REMARK  121  A    between atoms: _347  and  _349
REMARK  122  A    between atoms: _349  and  _350
REMARK  123  A    between atoms: _349  and  _352
REMARK  124  A    between atoms: _352  and  _353
REMARK  125  A    between atoms: _356  and  _358
REMARK  126  A    between atoms: _358  and  _359
REMARK  127  A    between atoms: _358  and  _361
REMARK  128  A    between atoms: _361  and  _362
REMARK  129  A    between atoms: _367  and  _368
REMARK  130  A    between atoms: _370  and  _372
REMARK  131  A    between atoms: _372  and  _373
REMARK  132  A    between atoms: _372  and  _375
REMARK  133  A    between atoms: _375  and  _376
REMARK  134  A    between atoms: _378  and  _380
REMARK  135  A    between atoms: _380  and  _381
REMARK  136  A    between atoms: _380  and  _383
REMARK  137  A    between atoms: _386  and  _388
REMARK  138  A    between atoms: _388  and  _389
REMARK  139  A    between atoms: _388  and  _391
REMARK  140  A    between atoms: _391  and  _392
REMARK  141  A    between atoms: _402  and  _404
REMARK  142  A    between atoms: _404  and  _405
REMARK  143  A    between atoms: _404  and  _407
REMARK  144  A    between atoms: _407  and  _408
REMARK  145  A    between atoms: _413  and  _415
REMARK  146  A    between atoms: _415  and  _416
REMARK  147  A    between atoms: _415  and  _418
REMARK  148  A    between atoms: _418  and  _419
REMARK  149  A    between atoms: _419  and  _420
REMARK  150  A    between atoms: _420  and  _421
REMARK                            x       y       z     vdW  Elec       q    Type
REMARK                         _______ _______ _______ _____ _____    ______ ____
ROOT
ATOM      1  O   HOH     1      36.881  18.161 -24.502  0.00  0.00    +0.000 OA
ENDROOT
TORSDOF 0
REMARK  Name = ../refined-set-2016/1azm/1azm_pocket.pdb
REMARK  150 active torsions:
REMARK  status: ('A' for Active; 'I' for Inactive)
REMARK    1  A    between atoms: _1  and  _3
REMARK    2  A    between atoms: _3  and  _4
REMARK    3  A    between atoms: _3  and  _6
REMARK    4  A    between atoms: _6  and  _7
REMARK    5  A    between atoms: _17  and  _19
REMARK    6  A    between atoms: _19  and  _20
REMARK    7  A    between atoms: _19  and  _22
REMARK    8  A    between atoms: _22  and  _23
REMARK    9  A    between atoms: _28  and  _29
REMARK   10  A    between atoms: _31  and  _33
REMARK   11  A    between atoms: _33  and  _34
REMARK   12  A    between atoms: _33  and  _36
REMARK   13  A    between atoms: _36  and  _37
REMARK   14  A    between atoms: _40  and  _41
REMARK   15  A    between atoms: _46  and  _48
REMARK   16  A    between atoms: _48  and  _49
REMARK   17  A    between atoms: _48  and  _51
REMARK   18  A    between atoms: _51  and  _52
REMARK   19  A    between atoms: _57  and  _59
REMARK   20  A    between atoms: _59  and  _60
REMARK   21  A    between atoms: _59  and  _62
REMARK   22  A    between atoms: _62  and  _63
REMARK   23  A    between atoms: _65  and  _67
REMARK   24  A    between atoms: _67  and  _68
REMARK   25  A    between atoms: _67  and  _70
REMARK   26  A    between atoms: _70  and  _71
REMARK   27  A    between atoms: _76  and  _78
REMARK   28  A    between atoms: _78  and  _79
REMARK   29  A    between atoms: _78  and  _81
REMARK   30  A    between atoms: _81  and  _82
REMARK   31  A    between atoms: _88  and  _90
REMARK   32  A    between atoms: _90  and  _91
REMARK   33  A    between atoms: _90  and  _93
REMARK   34  A    between atoms: _93  and  _94
REMARK   35  A    between atoms: _94  and  _95
REMARK   36  A    between atoms: _100  and  _102
REMARK   37  A    between atoms: _102  and  _103
REMARK   38  A    between atoms: _102  and  _105
REMARK   39  A    between atoms: _105  and  _106
REMARK   40  A    between atoms: _112  and  _114
REMARK   41  A    between atoms: _125  and  _128
REMARK   42  A    between atoms: _128  and  _129
REMARK   43  A    between atoms: _137  and  _138
REMARK   44  A    between atoms: _146  and  _148
REMARK   45  A    between atoms: _148  and  _149
REMARK   46  A    between atoms: _148  and  _151
REMARK   47  A    between atoms: _151  and  _152
REMARK   48  A    between atoms: _152  and  _153
REMARK   49  A    between atoms: _156  and  _158
REMARK   50  A    between atoms: _158  and  _159
REMARK   51  A    between atoms: _158  and  _161
REMARK   52  A    between atoms: _161  and  _162
REMARK   53  A    between atoms: _167  and  _169
REMARK   54  A    between atoms: _169  and  _170
REMARK   55  A    between atoms: _169  and  _172
REMARK   56  A    between atoms: _172  and  _173
REMARK   57  A    between atoms: _173  and  _174
REMARK   58  A    between atoms: _177  and  _179
REMARK   59  A    between atoms: _179  and  _180
REMARK   60  A    between atoms: _179  and  _182
REMARK   61  A    between atoms: _182  and  _183
REMARK   62  A    between atoms: _186  and  _188
REMARK   63  A    between atoms: _188  and  _189
REMARK   64  A    between atoms: _188  and  _191
REMARK   65  A    between atoms: _191  and  _192
REMARK   66  A    between atoms: _193  and  ZN_430
REMARK   67  A    between atoms: _197  and  _199
REMARK   68  A    between atoms: _199  and  _200
REMARK   69  A    between atoms: _199  and  _202
REMARK   70  A    between atoms: _205  and  _207
REMARK   71  A    between atoms: _207  and  _208
REMARK   72  A    between atoms: _211  and  _213
REMARK   73  A    between atoms: _213  and  _214
REMARK   74  A    between atoms: _213  and  _216
REMARK   75  A    between atoms: _216  and  _217
REMARK   76  A    between atoms: _222  and  _224
REMARK   77  A    between atoms: _224  and  _225
REMARK   78  A    between atoms: _224  and  _227
REMARK   79  A    between atoms: _227  and  _228
REMARK   80  A    between atoms: _238  and  _240
REMARK   81  A    between atoms: _240  and  _241
REMARK   82  A    between atoms: _240  and  _243
REMARK   83  A    between atoms: _243  and  _244
REMARK   84  A    between atoms: _247  and  _249
REMARK   85  A    between atoms: _249  and  _250
REMARK   86  A    between atoms: _253  and  _255
REMARK   87  A    between atoms: _255  and  _256
REMARK   88  A    between atoms: _259  and  _261
REMARK   89  A    between atoms: _261  and  _262
REMARK   90  A    between atoms: _261  and  _264
REMARK   91  A    between atoms: _264  and  _265
REMARK   92  A    between atoms: _268  and  _270
REMARK   93  A    between atoms: _270  and  _271
REMARK   94  A    between atoms: _274  and  _276
REMARK   95  A    between atoms: _276  and  _277
REMARK   96  A    between atoms: _276  and  _279
REMARK   97  A    between atoms: _282  and  _284
REMARK   98  A    between atoms: _284  and  _285
REMARK   99  A    between atoms: _284  and  _287
REMARK  100  A    between atoms: _287  and  _288
REMARK  101  A    between atoms: _291  and  _293
REMARK  102  A    between atoms: _293  and  _294
REMARK  103  A    between atoms: _296  and  _298
REMARK  104  A    between atoms: _298  and  _299
REMARK  105  A    between atoms: _298  and  _301
REMARK  106  A    between atoms: _301  and  _302
REMARK  107  A    between atoms: _304  and  _306
REMARK  108  A    between atoms: _306  and  _307
REMARK  109  A    between atoms: _306  and  _309
REMARK  110  A    between atoms: _309  and  _310
REMARK  111  A    between atoms: _313  and  _315
REMARK  112  A    between atoms: _315  and  _316
REMARK  113  A    between atoms: _315  and  _318
REMARK  114  A    between atoms: _318  and  _319
REMARK  115  A    between atoms: _322  and  _324
REMARK  116  A    between atoms: _324  and  _325
REMARK  117  A    between atoms: _324  and  _327
REMARK  118  A    between atoms: _327  and  _328
REMARK  119  A    between atoms: _334  and  _335
REMARK  120  A    between atoms: _341  and  _342
REMARK  121  A    between atoms: _347  and  _349
REMARK  122  A    between atoms: _349  and  _350
REMARK  123  A    between atoms: _349  and  _352
REMARK  124  A    between atoms: _352  and  _353
REMARK  125  A    between atoms: _356  and  _358
REMARK  126  A    between atoms: _358  and  _359
REMARK  127  A    between atoms: _358  and  _361
REMARK  128  A    between atoms: _361  and  _362
REMARK  129  A    between atoms: _367  and  _368
REMARK  130  A    between atoms: _370  and  _372
REMARK  131  A    between atoms: _372  and  _373
REMARK  132  A    between atoms: _372  and  _375
REMARK  133  A    between atoms: _375  and  _376
REMARK  134  A    between atoms: _378  and  _380
REMARK  135  A    between atoms: _380  and  _381
REMARK  136  A    between atoms: _380  and  _383
REMARK  137  A    between atoms: _386  and  _388
REMARK  138  A    between atoms: _388  and  _389
REMARK  139  A    between atoms: _388  and  _391
REMARK  140  A    between atoms: _391  and  _392
REMARK  141  A    between atoms: _402  and  _404
REMARK  142  A    between atoms: _404  and  _405
REMARK  143  A    between atoms: _404  and  _407
REMARK  144  A    between atoms: _407  and  _408
REMARK  145  A    between atoms: _413  and  _415
REMARK  146  A    between atoms: _415  and  _416
REMARK  147  A    between atoms: _415  and  _418
REMARK  148  A    between atoms: _418  and  _419
REMARK  149  A    between atoms: _419  and  _420
REMARK  150  A    between atoms: _420  and  _421
REMARK                            x       y       z     vdW  Elec       q    Type
REMARK                         _______ _______ _______ _____ _____    ______ ____
ROOT
ATOM      1  O   HOH     1      36.217  14.210 -20.706  0.00  0.00    +0.000 OA
ENDROOT
TORSDOF 0
REMARK  Name = ../refined-set-2016/1azm/1azm_pocket.pdb
REMARK  150 active torsions:
REMARK  status: ('A' for Active; 'I' for Inactive)
REMARK    1  A    between atoms: _1  and  _3
REMARK    2  A    between atoms: _3  and  _4
REMARK    3  A    between atoms: _3  and  _6
REMARK    4  A    between atoms: _6  and  _7
REMARK    5  A    between atoms: _17  and  _19
REMARK    6  A    between atoms: _19  and  _20
REMARK    7  A    between atoms: _19  and  _22
REMARK    8  A    between atoms: _22  and  _23
REMARK    9  A    between atoms: _28  and  _29
REMARK   10  A    between atoms: _31  and  _33
REMARK   11  A    between atoms: _33  and  _34
REMARK   12  A    between atoms: _33  and  _36
REMARK   13  A    between atoms: _36  and  _37
REMARK   14  A    between atoms: _40  and  _41
REMARK   15  A    between atoms: _46  and  _48
REMARK   16  A    between atoms: _48  and  _49
REMARK   17  A    between atoms: _48  and  _51
REMARK   18  A    between atoms: _51  and  _52
REMARK   19  A    between atoms: _57  and  _59
REMARK   20  A    between atoms: _59  and  _60
REMARK   21  A    between atoms: _59  and  _62
REMARK   22  A    between atoms: _62  and  _63
REMARK   23  A    between atoms: _65  and  _67
REMARK   24  A    between atoms: _67  and  _68
REMARK   25  A    between atoms: _67  and  _70
REMARK   26  A    between atoms: _70  and  _71
REMARK   27  A    between atoms: _76  and  _78
REMARK   28  A    between atoms: _78  and  _79
REMARK   29  A    between atoms: _78  and  _81
REMARK   30  A    between atoms: _81  and  _82
REMARK   31  A    between atoms: _88  and  _90
REMARK   32  A    between atoms: _90  and  _91
REMARK   33  A    between atoms: _90  and  _93
REMARK   34  A    between atoms: _93  and  _94
REMARK   35  A    between atoms: _94  and  _95
REMARK   36  A    between atoms: _100  and  _102
REMARK   37  A    between atoms: _102  and  _103
REMARK   38  A    between atoms: _102  and  _105
REMARK   39  A    between atoms: _105  and  _106
REMARK   40  A    between atoms: _112  and  _114
REMARK   41  A    between atoms: _125  and  _128
REMARK   42  A    between atoms: _128  and  _129
REMARK   43  A    between atoms: _137  and  _138
REMARK   44  A    between atoms: _146  and  _148
REMARK   45  A    between atoms: _148  and  _149
REMARK   46  A    between atoms: _148  and  _151
REMARK   47  A    between atoms: _151  and  _152
REMARK   48  A    between atoms: _152  and  _153
REMARK   49  A    between atoms: _156  and  _158
REMARK   50  A    between atoms: _158  and  _159
REMARK   51  A    between atoms: _158  and  _161
REMARK   52  A    between atoms: _161  and  _162
REMARK   53  A    between atoms: _167  and  _169
REMARK   54  A    between atoms: _169  and  _170
REMARK   55  A    between atoms: _169  and  _172
REMARK   56  A    between atoms: _172  and  _173
REMARK   57  A    between atoms: _173  and  _174
REMARK   58  A    between atoms: _177  and  _179
REMARK   59  A    between atoms: _179  and  _180
REMARK   60  A    between atoms: _179  and  _182
REMARK   61  A    between atoms: _182  and  _183
REMARK   62  A    between atoms: _186  and  _188
REMARK   63  A    between atoms: _188  and  _189
REMARK   64  A    between atoms: _188  and  _191
REMARK   65  A    between atoms: _191  and  _192
REMARK   66  A    between atoms: _193  and  ZN_430
REMARK   67  A    between atoms: _197  and  _199
REMARK   68  A    between atoms: _199  and  _200
REMARK   69  A    between atoms: _199  and  _202
REMARK   70  A    between atoms: _205  and  _207
REMARK   71  A    between atoms: _207  and  _208
REMARK   72  A    between atoms: _211  and  _213
REMARK   73  A    between atoms: _213  and  _214
REMARK   74  A    between atoms: _213  and  _216
REMARK   75  A    between atoms: _216  and  _217
REMARK   76  A    between atoms: _222  and  _224
REMARK   77  A    between atoms: _224  and  _225
REMARK   78  A    between atoms: _224  and  _227
REMARK   79  A    between atoms: _227  and  _228
REMARK   80  A    between atoms: _238  and  _240
REMARK   81  A    between atoms: _240  and  _241
REMARK   82  A    between atoms: _240  and  _243
REMARK   83  A    between atoms: _243  and  _244
REMARK   84  A    between atoms: _247  and  _249
REMARK   85  A    between atoms: _249  and  _250
REMARK   86  A    between atoms: _253  and  _255
REMARK   87  A    between atoms: _255  and  _256
REMARK   88  A    between atoms: _259  and  _261
REMARK   89  A    between atoms: _261  and  _262
REMARK   90  A    between atoms: _261  and  _264
REMARK   91  A    between atoms: _264  and  _265
REMARK   92  A    between atoms: _268  and  _270
REMARK   93  A    between atoms: _270  and  _271
REMARK   94  A    between atoms: _274  and  _276
REMARK   95  A    between atoms: _276  and  _277
REMARK   96  A    between atoms: _276  and  _279
REMARK   97  A    between atoms: _282  and  _284
REMARK   98  A    between atoms: _284  and  _285
REMARK   99  A    between atoms: _284  and  _287
REMARK  100  A    between atoms: _287  and  _288
REMARK  101  A    between atoms: _291  and  _293
REMARK  102  A    between atoms: _293  and  _294
REMARK  103  A    between atoms: _296  and  _298
REMARK  104  A    between atoms: _298  and  _299
REMARK  105  A    between atoms: _298  and  _301
REMARK  106  A    between atoms: _301  and  _302
REMARK  107  A    between atoms: _304  and  _306
REMARK  108  A    between atoms: _306  and  _307
REMARK  109  A    between atoms: _306  and  _309
REMARK  110  A    between atoms: _309  and  _310
REMARK  111  A    between atoms: _313  and  _315
REMARK  112  A    between atoms: _315  and  _316
REMARK  113  A    between atoms: _315  and  _318
REMARK  114  A    between atoms: _318  and  _319
REMARK  115  A    between atoms: _322  and  _324
REMARK  116  A    between atoms: _324  and  _325
REMARK  117  A    between atoms: _324  and  _327
REMARK  118  A    between atoms: _327  and  _328
REMARK  119  A    between atoms: _334  and  _335
REMARK  120  A    between atoms: _341  and  _342
REMARK  121  A    between atoms: _347  and  _349
REMARK  122  A    between atoms: _349  and  _350
REMARK  123  A    between atoms: _349  and  _352
REMARK  124  A    between atoms: _352  and  _353
REMARK  125  A    between atoms: _356  and  _358
REMARK  126  A    between atoms: _358  and  _359
REMARK  127  A    between atoms: _358  and  _361
REMARK  128  A    between atoms: _361  and  _362
REMARK  129  A    between atoms: _367  and  _368
REMARK  130  A    between atoms: _370  and  _372
REMARK  131  A    between atoms: _372  and  _373
REMARK  132  A    between atoms: _372  and  _375
REMARK  133  A    between atoms: _375  and  _376
REMARK  134  A    between atoms: _378  and  _380
REMARK  135  A    between atoms: _380  and  _381
REMARK  136  A    between atoms: _380  and  _383
REMARK  137  A    between atoms: _386  and  _388
REMARK  138  A    between atoms: _388  and  _389
REMARK  139  A    between atoms: _388  and  _391
REMARK  140  A    between atoms: _391  and  _392
REMARK  141  A    between atoms: _402  and  _404
REMARK  142  A    between atoms: _404  and  _405
REMARK  143  A    between atoms: _404  and  _407
REMARK  144  A    between atoms: _407  and  _408
REMARK  145  A    between atoms: _413  and  _415
REMARK  146  A    between atoms: _415  and  _416
REMARK  147  A    between atoms: _415  and  _418
REMARK  148  A    between atoms: _418  and  _419
REMARK  149  A    between atoms: _419  and  _420
REMARK  150  A    between atoms: _420  and  _421
REMARK                            x       y       z     vdW  Elec       q    Type
REMARK                         _______ _______ _______ _____ _____    ______ ____
ROOT
ATOM      1  O   HOH     1      28.284  16.305 -27.550  0.00  0.00    +0.000 OA
ENDROOT
TORSDOF 0
