REMARK  Name = ../refined-set-2016/4ufh/4ufh_pocket.pdb
REMARK  134 active torsions:
REMARK  status: ('A' for Active; 'I' for Inactive)
REMARK    1  A    between atoms: _1  and  _3
REMARK    2  A    between atoms: _3  and  _4
REMARK    3  A    between atoms: _3  and  _6
REMARK    4  A    between atoms: _9  and  _11
REMARK    5  A    between atoms: _11  and  _12
REMARK    6  A    between atoms: _14  and  _16
REMARK    7  A    between atoms: _16  and  _17
REMARK    8  A    between atoms: _19  and  _21
REMARK    9  A    between atoms: _21  and  _22
REMARK   10  A    between atoms: _24  and  _26
REMARK   11  A    between atoms: _26  and  _27
REMARK   12  A    between atoms: _30  and  _32
REMARK   13  A    between atoms: _32  and  _33
REMARK   14  A    between atoms: _32  and  _35
REMARK   15  A    between atoms: _35  and  _36
REMARK   16  A    between atoms: _39  and  _41
REMARK   17  A    between atoms: _41  and  _42
REMARK   18  A    between atoms: _41  and  _44
REMARK   19  A    between atoms: _44  and  _45
REMARK   20  A    between atoms: _45  and  _46
REMARK   21  A    between atoms: _46  and  _47
REMARK   22  A    between atoms: _47  and  _48
REMARK   23  A    between atoms: _52  and  _54
REMARK   24  A    between atoms: _54  and  _55
REMARK   25  A    between atoms: _54  and  _57
REMARK   26  A    between atoms: _57  and  _58
REMARK   27  A    between atoms: _58  and  _59
REMARK   28  A    between atoms: _62  and  _64
REMARK   29  A    between atoms: _64  and  _65
REMARK   30  A    between atoms: _64  and  _67
REMARK   31  A    between atoms: _67  and  _68
REMARK   32  A    between atoms: _71  and  _73
REMARK   33  A    between atoms: _73  and  _74
REMARK   34  A    between atoms: _73  and  _76
REMARK   35  A    between atoms: _76  and  _77
REMARK   36  A    between atoms: _80  and  _82
REMARK   37  A    between atoms: _82  and  _83
REMARK   38  A    between atoms: _82  and  _85
REMARK   39  A    between atoms: _85  and  _86
REMARK   40  A    between atoms: _89  and  _91
REMARK   41  A    between atoms: _91  and  _92
REMARK   42  A    between atoms: _94  and  _96
REMARK   43  A    between atoms: _96  and  _97
REMARK   44  A    between atoms: _96  and  _99
REMARK   45  A    between atoms: _99  and  _100
REMARK   46  A    between atoms: _103  and  _105
REMARK   47  A    between atoms: _105  and  _106
REMARK   48  A    between atoms: _105  and  _108
REMARK   49  A    between atoms: _108  and  _109
REMARK   50  A    between atoms: _119  and  _121
REMARK   51  A    between atoms: _121  and  _122
REMARK   52  A    between atoms: _121  and  _124
REMARK   53  A    between atoms: _124  and  _125
REMARK   54  A    between atoms: _130  and  _132
REMARK   55  A    between atoms: _132  and  _133
REMARK   56  A    between atoms: _132  and  _135
REMARK   57  A    between atoms: _135  and  _136
REMARK   58  A    between atoms: _136  and  _137
REMARK   59  A    between atoms: _140  and  _142
REMARK   60  A    between atoms: _142  and  _143
REMARK   61  A    between atoms: _142  and  _145
REMARK   62  A    between atoms: _145  and  _146
REMARK   63  A    between atoms: _146  and  _147
REMARK   64  A    between atoms: _147  and  _148
REMARK   65  A    between atoms: _157  and  _159
REMARK   66  A    between atoms: _159  and  _160
REMARK   67  A    between atoms: _159  and  _162
REMARK   68  A    between atoms: _162  and  _163
REMARK   69  A    between atoms: _166  and  _168
REMARK   70  A    between atoms: _168  and  _169
REMARK   71  A    between atoms: _168  and  _171
REMARK   72  A    between atoms: _171  and  _172
REMARK   73  A    between atoms: _177  and  _179
REMARK   74  A    between atoms: _179  and  _180
REMARK   75  A    between atoms: _179  and  _182
REMARK   76  A    between atoms: _182  and  _183
REMARK   77  A    between atoms: _188  and  _189
REMARK   78  A    between atoms: _191  and  _193
REMARK   79  A    between atoms: _193  and  _194
REMARK   80  A    between atoms: _193  and  _196
REMARK   81  A    between atoms: _196  and  _197
REMARK   82  A    between atoms: _197  and  _198
REMARK   83  A    between atoms: _201  and  _203
REMARK   84  A    between atoms: _203  and  _204
REMARK   85  A    between atoms: _203  and  _206
REMARK   86  A    between atoms: _206  and  _207
REMARK   87  A    between atoms: _210  and  _212
REMARK   88  A    between atoms: _212  and  _213
REMARK   89  A    between atoms: _212  and  _215
REMARK   90  A    between atoms: _215  and  _216
REMARK   91  A    between atoms: _222  and  _224
REMARK   92  A    between atoms: _224  and  _225
REMARK   93  A    between atoms: _224  and  _227
REMARK   94  A    between atoms: _227  and  _228
REMARK   95  A    between atoms: _230  and  _232
REMARK   96  A    between atoms: _232  and  _233
REMARK   97  A    between atoms: _232  and  _235
REMARK   98  A    between atoms: _235  and  _236
REMARK   99  A    between atoms: _239  and  _241
REMARK  100  A    between atoms: _241  and  _242
REMARK  101  A    between atoms: _241  and  _244
REMARK  102  A    between atoms: _244  and  _245
REMARK  103  A    between atoms: _255  and  _257
REMARK  104  A    between atoms: _257  and  _258
REMARK  105  A    between atoms: _257  and  _260
REMARK  106  A    between atoms: _260  and  _261
REMARK  107  A    between atoms: _267  and  _268
REMARK  108  A    between atoms: _273  and  _275
REMARK  109  A    between atoms: _275  and  _276
REMARK  110  A    between atoms: _275  and  _278
REMARK  111  A    between atoms: _278  and  _279
REMARK  112  A    between atoms: _284  and  _285
REMARK  113  A    between atoms: _287  and  _289
REMARK  114  A    between atoms: _289  and  _290
REMARK  115  A    between atoms: _289  and  _292
REMARK  116  A    between atoms: _292  and  _293
REMARK  117  A    between atoms: _295  and  _297
REMARK  118  A    between atoms: _297  and  _298
REMARK  119  A    between atoms: _297  and  _300
REMARK  120  A    between atoms: _300  and  _301
REMARK  121  A    between atoms: _304  and  _306
REMARK  122  A    between atoms: _306  and  _307
REMARK  123  A    between atoms: _306  and  _309
REMARK  124  A    between atoms: _309  and  _310
REMARK  125  A    between atoms: _310  and  _311
REMARK  126  A    between atoms: _311  and  _312
REMARK  127  A    between atoms: _321  and  _323
REMARK  128  A    between atoms: _323  and  _324
REMARK  129  A    between atoms: _323  and  _326
REMARK  130  A    between atoms: _326  and  _327
REMARK  131  A    between atoms: _337  and  _339
REMARK  132  A    between atoms: _339  and  _340
REMARK  133  A    between atoms: _339  and  _342
REMARK  134  A    between atoms: _342  and  _343
REMARK                            x       y       z     vdW  Elec       q    Type
REMARK                         _______ _______ _______ _____ _____    ______ ____
ROOT
ATOM      1  CA  VAL A   1      78.803  97.666  21.988  0.00  0.00    +0.133 C 
ENDROOT
BRANCH   1   2
ATOM      2  CB  VAL A   1      78.121  96.446  21.330  0.00  0.00    +0.023 C 
ATOM      3  CG2 VAL A   1      77.277  95.700  22.352  0.00  0.00    +0.002 C 
ATOM      4  CG1 VAL A   1      77.267  96.877  20.153  0.00  0.00    +0.002 C 
ENDBRANCH   1   2
BRANCH   1   5
ATOM      5  N   VAL A   1      79.708  98.338  21.069  0.00  0.00    -0.239 NA
ATOM      6  H   VAL A   1      80.445  97.789  20.582  0.00  0.00    +0.142 HD
ENDBRANCH   1   5
BRANCH   1   7
ATOM      7  C   VAL A   1      79.508  97.196  23.252  0.00  0.00    +0.224 C 
ATOM      8  O   VAL A   1      80.517  96.497  23.192  0.00  0.00    -0.287 OA
ENDBRANCH   1   7
TORSDOF 3
REMARK  Name = ../refined-set-2016/4ufh/4ufh_pocket.pdb
REMARK  134 active torsions:
REMARK  status: ('A' for Active; 'I' for Inactive)
REMARK    1  A    between atoms: _1  and  _3
REMARK    2  A    between atoms: _3  and  _4
REMARK    3  A    between atoms: _3  and  _6
REMARK    4  A    between atoms: _9  and  _11
REMARK    5  A    between atoms: _11  and  _12
REMARK    6  A    between atoms: _14  and  _16
REMARK    7  A    between atoms: _16  and  _17
REMARK    8  A    between atoms: _19  and  _21
REMARK    9  A    between atoms: _21  and  _22
REMARK   10  A    between atoms: _24  and  _26
REMARK   11  A    between atoms: _26  and  _27
REMARK   12  A    between atoms: _30  and  _32
REMARK   13  A    between atoms: _32  and  _33
REMARK   14  A    between atoms: _32  and  _35
REMARK   15  A    between atoms: _35  and  _36
REMARK   16  A    between atoms: _39  and  _41
REMARK   17  A    between atoms: _41  and  _42
REMARK   18  A    between atoms: _41  and  _44
REMARK   19  A    between atoms: _44  and  _45
REMARK   20  A    between atoms: _45  and  _46
REMARK   21  A    between atoms: _46  and  _47
REMARK   22  A    between atoms: _47  and  _48
REMARK   23  A    between atoms: _52  and  _54
REMARK   24  A    between atoms: _54  and  _55
REMARK   25  A    between atoms: _54  and  _57
REMARK   26  A    between atoms: _57  and  _58
REMARK   27  A    between atoms: _58  and  _59
REMARK   28  A    between atoms: _62  and  _64
REMARK   29  A    between atoms: _64  and  _65
REMARK   30  A    between atoms: _64  and  _67
REMARK   31  A    between atoms: _67  and  _68
REMARK   32  A    between atoms: _71  and  _73
REMARK   33  A    between atoms: _73  and  _74
REMARK   34  A    between atoms: _73  and  _76
REMARK   35  A    between atoms: _76  and  _77
REMARK   36  A    between atoms: _80  and  _82
REMARK   37  A    between atoms: _82  and  _83
REMARK   38  A    between atoms: _82  and  _85
REMARK   39  A    between atoms: _85  and  _86
REMARK   40  A    between atoms: _89  and  _91
REMARK   41  A    between atoms: _91  and  _92
REMARK   42  A    between atoms: _94  and  _96
REMARK   43  A    between atoms: _96  and  _97
REMARK   44  A    between atoms: _96  and  _99
REMARK   45  A    between atoms: _99  and  _100
REMARK   46  A    between atoms: _103  and  _105
REMARK   47  A    between atoms: _105  and  _106
REMARK   48  A    between atoms: _105  and  _108
REMARK   49  A    between atoms: _108  and  _109
REMARK   50  A    between atoms: _119  and  _121
REMARK   51  A    between atoms: _121  and  _122
REMARK   52  A    between atoms: _121  and  _124
REMARK   53  A    between atoms: _124  and  _125
REMARK   54  A    between atoms: _130  and  _132
REMARK   55  A    between atoms: _132  and  _133
REMARK   56  A    between atoms: _132  and  _135
REMARK   57  A    between atoms: _135  and  _136
REMARK   58  A    between atoms: _136  and  _137
REMARK   59  A    between atoms: _140  and  _142
REMARK   60  A    between atoms: _142  and  _143
REMARK   61  A    between atoms: _142  and  _145
REMARK   62  A    between atoms: _145  and  _146
REMARK   63  A    between atoms: _146  and  _147
REMARK   64  A    between atoms: _147  and  _148
REMARK   65  A    between atoms: _157  and  _159
REMARK   66  A    between atoms: _159  and  _160
REMARK   67  A    between atoms: _159  and  _162
REMARK   68  A    between atoms: _162  and  _163
REMARK   69  A    between atoms: _166  and  _168
REMARK   70  A    between atoms: _168  and  _169
REMARK   71  A    between atoms: _168  and  _171
REMARK   72  A    between atoms: _171  and  _172
REMARK   73  A    between atoms: _177  and  _179
REMARK   74  A    between atoms: _179  and  _180
REMARK   75  A    between atoms: _179  and  _182
REMARK   76  A    between atoms: _182  and  _183
REMARK   77  A    between atoms: _188  and  _189
REMARK   78  A    between atoms: _191  and  _193
REMARK   79  A    between atoms: _193  and  _194
REMARK   80  A    between atoms: _193  and  _196
REMARK   81  A    between atoms: _196  and  _197
REMARK   82  A    between atoms: _197  and  _198
REMARK   83  A    between atoms: _201  and  _203
REMARK   84  A    between atoms: _203  and  _204
REMARK   85  A    between atoms: _203  and  _206
REMARK   86  A    between atoms: _206  and  _207
REMARK   87  A    between atoms: _210  and  _212
REMARK   88  A    between atoms: _212  and  _213
REMARK   89  A    between atoms: _212  and  _215
REMARK   90  A    between atoms: _215  and  _216
REMARK   91  A    between atoms: _222  and  _224
REMARK   92  A    between atoms: _224  and  _225
REMARK   93  A    between atoms: _224  and  _227
REMARK   94  A    between atoms: _227  and  _228
REMARK   95  A    between atoms: _230  and  _232
REMARK   96  A    between atoms: _232  and  _233
REMARK   97  A    between atoms: _232  and  _235
REMARK   98  A    between atoms: _235  and  _236
REMARK   99  A    between atoms: _239  and  _241
REMARK  100  A    between atoms: _241  and  _242
REMARK  101  A    between atoms: _241  and  _244
REMARK  102  A    between atoms: _244  and  _245
REMARK  103  A    between atoms: _255  and  _257
REMARK  104  A    between atoms: _257  and  _258
REMARK  105  A    between atoms: _257  and  _260
REMARK  106  A    between atoms: _260  and  _261
REMARK  107  A    between atoms: _267  and  _268
REMARK  108  A    between atoms: _273  and  _275
REMARK  109  A    between atoms: _275  and  _276
REMARK  110  A    between atoms: _275  and  _278
REMARK  111  A    between atoms: _278  and  _279
REMARK  112  A    between atoms: _284  and  _285
REMARK  113  A    between atoms: _287  and  _289
REMARK  114  A    between atoms: _289  and  _290
REMARK  115  A    between atoms: _289  and  _292
REMARK  116  A    between atoms: _292  and  _293
REMARK  117  A    between atoms: _295  and  _297
REMARK  118  A    between atoms: _297  and  _298
REMARK  119  A    between atoms: _297  and  _300
REMARK  120  A    between atoms: _300  and  _301
REMARK  121  A    between atoms: _304  and  _306
REMARK  122  A    between atoms: _306  and  _307
REMARK  123  A    between atoms: _306  and  _309
REMARK  124  A    between atoms: _309  and  _310
REMARK  125  A    between atoms: _310  and  _311
REMARK  126  A    between atoms: _311  and  _312
REMARK  127  A    between atoms: _321  and  _323
REMARK  128  A    between atoms: _323  and  _324
REMARK  129  A    between atoms: _323  and  _326
REMARK  130  A    between atoms: _326  and  _327
REMARK  131  A    between atoms: _337  and  _339
REMARK  132  A    between atoms: _339  and  _340
REMARK  133  A    between atoms: _339  and  _342
REMARK  134  A    between atoms: _342  and  _343
REMARK                            x       y       z     vdW  Elec       q    Type
REMARK                         _______ _______ _______ _____ _____    ______ ____
ROOT
ATOM      1  C   GLY A   3      79.165  89.673  28.245  0.00  0.00    +0.243 C 
ATOM      2  N   ALA A   4      79.050  90.674  29.115  0.00  0.00    -0.297 N 
ATOM      3  H   ALA A   4      78.203  91.276  29.074  0.00  0.00    +0.150 HD
ATOM      4  O   GLY A   3      80.116  88.901  28.225  0.00  0.00    -0.273 OA
ENDROOT
BRANCH   2   5
ATOM      5  CA  ALA A   4      80.068  90.961  30.127  0.00  0.00    +0.149 C 
ATOM      6  CB  ALA A   4      80.174  89.811  31.126  0.00  0.00    +0.031 C 
BRANCH   5   7
ATOM      7  C   ALA A   4      81.426  91.239  29.487  0.00  0.00    +0.241 C 
ATOM      8  O   ALA A   4      82.455  90.750  29.950  0.00  0.00    -0.273 OA
ATOM      9  N   THR A   5      81.420  92.025  28.417  0.00  0.00    -0.296 N 
ATOM     10  H   THR A   5      80.519  92.424  28.083  0.00  0.00    +0.150 HD
BRANCH   9  11
ATOM     11  CA  THR A   5      82.647  92.340  27.702  0.00  0.00    +0.164 C 
BRANCH  11  12
ATOM     12  C   THR A   5      83.447  93.417  28.428  0.00  0.00    +0.229 C 
ATOM     13  O   THR A   5      84.659  93.519  28.256  0.00  0.00    -0.286 OA
ENDBRANCH  11  12
BRANCH  11  14
ATOM     14  CB  THR A   5      82.358  92.804  26.259  0.00  0.00    +0.136 C 
ATOM     15  CG2 THR A   5      81.801  91.657  25.430  0.00  0.00    +0.034 C 
BRANCH  14  16
ATOM     16  OG1 THR A   5      81.410  93.878  26.278  0.00  0.00    -0.382 OA
ATOM     17  HG1 THR A   5      81.780  94.634  26.799  0.00  0.00    +0.210 HD
ENDBRANCH  14  16
ENDBRANCH  11  14
ENDBRANCH   9  11
ENDBRANCH   5   7
ENDBRANCH   2   5
BRANCH   1  18
ATOM     18  CA  GLY A   3      78.046  89.518  27.237  0.00  0.00    +0.176 C 
BRANCH  18  20
ATOM     19  C   GLY A   2      77.928  89.742  24.795  0.00  0.00    +0.243 C 
ATOM     20  N   GLY A   3      78.571  89.349  25.893  0.00  0.00    -0.295 N 
ATOM     21  H   GLY A   3      79.501  88.896  25.782  0.00  0.00    +0.150 HD
ATOM     22  O   GLY A   2      78.386  89.569  23.671  0.00  0.00    -0.273 OA
BRANCH  19  23
ATOM     23  CA  GLY A   2      76.576  90.415  24.965  0.00  0.00    +0.176 C 
BRANCH  23  25
ATOM     24  C   GLY A   1      77.513  92.612  25.431  0.00  0.00    +0.240 C 
ATOM     25  N   GLY A   2      76.620  91.666  25.696  0.00  0.00    -0.295 N 
ATOM     26  H   GLY A   2      75.928  91.828  26.455  0.00  0.00    +0.150 HD
ATOM     27  O   GLY A   1      78.252  92.589  24.448  0.00  0.00    -0.274 OA
BRANCH  24  28
ATOM     28  CA  GLY A   1      77.555  93.760  26.412  0.00  0.00    +0.169 C 
BRANCH  28  29
ATOM     29  N   GLY A   1      78.548  94.750  26.055  0.00  0.00    -0.236 NA
ATOM     30  H   GLY A   1      79.497  94.444  25.759  0.00  0.00    +0.142 HD
ENDBRANCH  28  29
ENDBRANCH  24  28
ENDBRANCH  23  25
ENDBRANCH  19  23
ENDBRANCH  18  20
ENDBRANCH   1  18
TORSDOF 12
REMARK  Name = ../refined-set-2016/4ufh/4ufh_pocket.pdb
REMARK  134 active torsions:
REMARK  status: ('A' for Active; 'I' for Inactive)
REMARK    1  A    between atoms: _1  and  _3
REMARK    2  A    between atoms: _3  and  _4
REMARK    3  A    between atoms: _3  and  _6
REMARK    4  A    between atoms: _9  and  _11
REMARK    5  A    between atoms: _11  and  _12
REMARK    6  A    between atoms: _14  and  _16
REMARK    7  A    between atoms: _16  and  _17
REMARK    8  A    between atoms: _19  and  _21
REMARK    9  A    between atoms: _21  and  _22
REMARK   10  A    between atoms: _24  and  _26
REMARK   11  A    between atoms: _26  and  _27
REMARK   12  A    between atoms: _30  and  _32
REMARK   13  A    between atoms: _32  and  _33
REMARK   14  A    between atoms: _32  and  _35
REMARK   15  A    between atoms: _35  and  _36
REMARK   16  A    between atoms: _39  and  _41
REMARK   17  A    between atoms: _41  and  _42
REMARK   18  A    between atoms: _41  and  _44
REMARK   19  A    between atoms: _44  and  _45
REMARK   20  A    between atoms: _45  and  _46
REMARK   21  A    between atoms: _46  and  _47
REMARK   22  A    between atoms: _47  and  _48
REMARK   23  A    between atoms: _52  and  _54
REMARK   24  A    between atoms: _54  and  _55
REMARK   25  A    between atoms: _54  and  _57
REMARK   26  A    between atoms: _57  and  _58
REMARK   27  A    between atoms: _58  and  _59
REMARK   28  A    between atoms: _62  and  _64
REMARK   29  A    between atoms: _64  and  _65
REMARK   30  A    between atoms: _64  and  _67
REMARK   31  A    between atoms: _67  and  _68
REMARK   32  A    between atoms: _71  and  _73
REMARK   33  A    between atoms: _73  and  _74
REMARK   34  A    between atoms: _73  and  _76
REMARK   35  A    between atoms: _76  and  _77
REMARK   36  A    between atoms: _80  and  _82
REMARK   37  A    between atoms: _82  and  _83
REMARK   38  A    between atoms: _82  and  _85
REMARK   39  A    between atoms: _85  and  _86
REMARK   40  A    between atoms: _89  and  _91
REMARK   41  A    between atoms: _91  and  _92
REMARK   42  A    between atoms: _94  and  _96
REMARK   43  A    between atoms: _96  and  _97
REMARK   44  A    between atoms: _96  and  _99
REMARK   45  A    between atoms: _99  and  _100
REMARK   46  A    between atoms: _103  and  _105
REMARK   47  A    between atoms: _105  and  _106
REMARK   48  A    between atoms: _105  and  _108
REMARK   49  A    between atoms: _108  and  _109
REMARK   50  A    between atoms: _119  and  _121
REMARK   51  A    between atoms: _121  and  _122
REMARK   52  A    between atoms: _121  and  _124
REMARK   53  A    between atoms: _124  and  _125
REMARK   54  A    between atoms: _130  and  _132
REMARK   55  A    between atoms: _132  and  _133
REMARK   56  A    between atoms: _132  and  _135
REMARK   57  A    between atoms: _135  and  _136
REMARK   58  A    between atoms: _136  and  _137
REMARK   59  A    between atoms: _140  and  _142
REMARK   60  A    between atoms: _142  and  _143
REMARK   61  A    between atoms: _142  and  _145
REMARK   62  A    between atoms: _145  and  _146
REMARK   63  A    between atoms: _146  and  _147
REMARK   64  A    between atoms: _147  and  _148
REMARK   65  A    between atoms: _157  and  _159
REMARK   66  A    between atoms: _159  and  _160
REMARK   67  A    between atoms: _159  and  _162
REMARK   68  A    between atoms: _162  and  _163
REMARK   69  A    between atoms: _166  and  _168
REMARK   70  A    between atoms: _168  and  _169
REMARK   71  A    between atoms: _168  and  _171
REMARK   72  A    between atoms: _171  and  _172
REMARK   73  A    between atoms: _177  and  _179
REMARK   74  A    between atoms: _179  and  _180
REMARK   75  A    between atoms: _179  and  _182
REMARK   76  A    between atoms: _182  and  _183
REMARK   77  A    between atoms: _188  and  _189
REMARK   78  A    between atoms: _191  and  _193
REMARK   79  A    between atoms: _193  and  _194
REMARK   80  A    between atoms: _193  and  _196
REMARK   81  A    between atoms: _196  and  _197
REMARK   82  A    between atoms: _197  and  _198
REMARK   83  A    between atoms: _201  and  _203
REMARK   84  A    between atoms: _203  and  _204
REMARK   85  A    between atoms: _203  and  _206
REMARK   86  A    between atoms: _206  and  _207
REMARK   87  A    between atoms: _210  and  _212
REMARK   88  A    between atoms: _212  and  _213
REMARK   89  A    between atoms: _212  and  _215
REMARK   90  A    between atoms: _215  and  _216
REMARK   91  A    between atoms: _222  and  _224
REMARK   92  A    between atoms: _224  and  _225
REMARK   93  A    between atoms: _224  and  _227
REMARK   94  A    between atoms: _227  and  _228
REMARK   95  A    between atoms: _230  and  _232
REMARK   96  A    between atoms: _232  and  _233
REMARK   97  A    between atoms: _232  and  _235
REMARK   98  A    between atoms: _235  and  _236
REMARK   99  A    between atoms: _239  and  _241
REMARK  100  A    between atoms: _241  and  _242
REMARK  101  A    between atoms: _241  and  _244
REMARK  102  A    between atoms: _244  and  _245
REMARK  103  A    between atoms: _255  and  _257
REMARK  104  A    between atoms: _257  and  _258
REMARK  105  A    between atoms: _257  and  _260
REMARK  106  A    between atoms: _260  and  _261
REMARK  107  A    between atoms: _267  and  _268
REMARK  108  A    between atoms: _273  and  _275
REMARK  109  A    between atoms: _275  and  _276
REMARK  110  A    between atoms: _275  and  _278
REMARK  111  A    between atoms: _278  and  _279
REMARK  112  A    between atoms: _284  and  _285
REMARK  113  A    between atoms: _287  and  _289
REMARK  114  A    between atoms: _289  and  _290
REMARK  115  A    between atoms: _289  and  _292
REMARK  116  A    between atoms: _292  and  _293
REMARK  117  A    between atoms: _295  and  _297
REMARK  118  A    between atoms: _297  and  _298
REMARK  119  A    between atoms: _297  and  _300
REMARK  120  A    between atoms: _300  and  _301
REMARK  121  A    between atoms: _304  and  _306
REMARK  122  A    between atoms: _306  and  _307
REMARK  123  A    between atoms: _306  and  _309
REMARK  124  A    between atoms: _309  and  _310
REMARK  125  A    between atoms: _310  and  _311
REMARK  126  A    between atoms: _311  and  _312
REMARK  127  A    between atoms: _321  and  _323
REMARK  128  A    between atoms: _323  and  _324
REMARK  129  A    between atoms: _323  and  _326
REMARK  130  A    between atoms: _326  and  _327
REMARK  131  A    between atoms: _337  and  _339
REMARK  132  A    between atoms: _339  and  _340
REMARK  133  A    between atoms: _339  and  _342
REMARK  134  A    between atoms: _342  and  _343
REMARK                            x       y       z     vdW  Elec       q    Type
REMARK                         _______ _______ _______ _____ _____    ______ ____
ROOT
ATOM      1  CG  LYS A   1      73.800  98.978  21.581  0.00  0.00    -0.000 C 
ENDROOT
BRANCH   1   2
ATOM      2  CB  LYS A   1      75.013  99.891  21.579  0.00  0.00    +0.025 C 
BRANCH   2   3
ATOM      3  CA  LYS A   1      75.257 100.616  22.903  0.00  0.00    +0.133 C 
BRANCH   3   4
ATOM      4  N   LYS A   1      76.352 101.564  22.771  0.00  0.00    -0.239 NA
ATOM      5  H   LYS A   1      77.267 101.232  22.404  0.00  0.00    +0.142 HD
ENDBRANCH   3   4
BRANCH   3   6
ATOM      6  C   LYS A   1      75.565  99.618  24.009  0.00  0.00    +0.224 C 
ATOM      7  O   LYS A   1      76.649  99.039  24.044  0.00  0.00    -0.287 OA
ENDBRANCH   3   6
ENDBRANCH   2   3
ENDBRANCH   1   2
BRANCH   1   8
ATOM      8  CD  LYS A   1      73.373  98.631  20.158  0.00  0.00    -0.024 C 
BRANCH   8   9
ATOM      9  CE  LYS A   1      73.564  97.156  19.866  0.00  0.00    -0.086 C 
BRANCH   9  10
ATOM     10  NZ  LYS A   1      72.890  96.743  18.605  0.00  0.00    +0.380 N 
ATOM     11  HZ1 LYS A   1      71.870  96.929  18.682  0.00  0.00    -0.089 HD
ATOM     12  HZ2 LYS A   1      73.047  95.727  18.446  0.00  0.00    -0.089 HD
ATOM     13  HZ3 LYS A   1      73.284  97.285  17.809  0.00  0.00    -0.089 HD
ENDBRANCH   9  10
ENDBRANCH   8   9
ENDBRANCH   1   8
TORSDOF 7
REMARK  Name = ../refined-set-2016/4ufh/4ufh_pocket.pdb
REMARK  134 active torsions:
REMARK  status: ('A' for Active; 'I' for Inactive)
REMARK    1  A    between atoms: _1  and  _3
REMARK    2  A    between atoms: _3  and  _4
REMARK    3  A    between atoms: _3  and  _6
REMARK    4  A    between atoms: _9  and  _11
REMARK    5  A    between atoms: _11  and  _12
REMARK    6  A    between atoms: _14  and  _16
REMARK    7  A    between atoms: _16  and  _17
REMARK    8  A    between atoms: _19  and  _21
REMARK    9  A    between atoms: _21  and  _22
REMARK   10  A    between atoms: _24  and  _26
REMARK   11  A    between atoms: _26  and  _27
REMARK   12  A    between atoms: _30  and  _32
REMARK   13  A    between atoms: _32  and  _33
REMARK   14  A    between atoms: _32  and  _35
REMARK   15  A    between atoms: _35  and  _36
REMARK   16  A    between atoms: _39  and  _41
REMARK   17  A    between atoms: _41  and  _42
REMARK   18  A    between atoms: _41  and  _44
REMARK   19  A    between atoms: _44  and  _45
REMARK   20  A    between atoms: _45  and  _46
REMARK   21  A    between atoms: _46  and  _47
REMARK   22  A    between atoms: _47  and  _48
REMARK   23  A    between atoms: _52  and  _54
REMARK   24  A    between atoms: _54  and  _55
REMARK   25  A    between atoms: _54  and  _57
REMARK   26  A    between atoms: _57  and  _58
REMARK   27  A    between atoms: _58  and  _59
REMARK   28  A    between atoms: _62  and  _64
REMARK   29  A    between atoms: _64  and  _65
REMARK   30  A    between atoms: _64  and  _67
REMARK   31  A    between atoms: _67  and  _68
REMARK   32  A    between atoms: _71  and  _73
REMARK   33  A    between atoms: _73  and  _74
REMARK   34  A    between atoms: _73  and  _76
REMARK   35  A    between atoms: _76  and  _77
REMARK   36  A    between atoms: _80  and  _82
REMARK   37  A    between atoms: _82  and  _83
REMARK   38  A    between atoms: _82  and  _85
REMARK   39  A    between atoms: _85  and  _86
REMARK   40  A    between atoms: _89  and  _91
REMARK   41  A    between atoms: _91  and  _92
REMARK   42  A    between atoms: _94  and  _96
REMARK   43  A    between atoms: _96  and  _97
REMARK   44  A    between atoms: _96  and  _99
REMARK   45  A    between atoms: _99  and  _100
REMARK   46  A    between atoms: _103  and  _105
REMARK   47  A    between atoms: _105  and  _106
REMARK   48  A    between atoms: _105  and  _108
REMARK   49  A    between atoms: _108  and  _109
REMARK   50  A    between atoms: _119  and  _121
REMARK   51  A    between atoms: _121  and  _122
REMARK   52  A    between atoms: _121  and  _124
REMARK   53  A    between atoms: _124  and  _125
REMARK   54  A    between atoms: _130  and  _132
REMARK   55  A    between atoms: _132  and  _133
REMARK   56  A    between atoms: _132  and  _135
REMARK   57  A    between atoms: _135  and  _136
REMARK   58  A    between atoms: _136  and  _137
REMARK   59  A    between atoms: _140  and  _142
REMARK   60  A    between atoms: _142  and  _143
REMARK   61  A    between atoms: _142  and  _145
REMARK   62  A    between atoms: _145  and  _146
REMARK   63  A    between atoms: _146  and  _147
REMARK   64  A    between atoms: _147  and  _148
REMARK   65  A    between atoms: _157  and  _159
REMARK   66  A    between atoms: _159  and  _160
REMARK   67  A    between atoms: _159  and  _162
REMARK   68  A    between atoms: _162  and  _163
REMARK   69  A    between atoms: _166  and  _168
REMARK   70  A    between atoms: _168  and  _169
REMARK   71  A    between atoms: _168  and  _171
REMARK   72  A    between atoms: _171  and  _172
REMARK   73  A    between atoms: _177  and  _179
REMARK   74  A    between atoms: _179  and  _180
REMARK   75  A    between atoms: _179  and  _182
REMARK   76  A    between atoms: _182  and  _183
REMARK   77  A    between atoms: _188  and  _189
REMARK   78  A    between atoms: _191  and  _193
REMARK   79  A    between atoms: _193  and  _194
REMARK   80  A    between atoms: _193  and  _196
REMARK   81  A    between atoms: _196  and  _197
REMARK   82  A    between atoms: _197  and  _198
REMARK   83  A    between atoms: _201  and  _203
REMARK   84  A    between atoms: _203  and  _204
REMARK   85  A    between atoms: _203  and  _206
REMARK   86  A    between atoms: _206  and  _207
REMARK   87  A    between atoms: _210  and  _212
REMARK   88  A    between atoms: _212  and  _213
REMARK   89  A    between atoms: _212  and  _215
REMARK   90  A    between atoms: _215  and  _216
REMARK   91  A    between atoms: _222  and  _224
REMARK   92  A    between atoms: _224  and  _225
REMARK   93  A    between atoms: _224  and  _227
REMARK   94  A    between atoms: _227  and  _228
REMARK   95  A    between atoms: _230  and  _232
REMARK   96  A    between atoms: _232  and  _233
REMARK   97  A    between atoms: _232  and  _235
REMARK   98  A    between atoms: _235  and  _236
REMARK   99  A    between atoms: _239  and  _241
REMARK  100  A    between atoms: _241  and  _242
REMARK  101  A    between atoms: _241  and  _244
REMARK  102  A    between atoms: _244  and  _245
REMARK  103  A    between atoms: _255  and  _257
REMARK  104  A    between atoms: _257  and  _258
REMARK  105  A    between atoms: _257  and  _260
REMARK  106  A    between atoms: _260  and  _261
REMARK  107  A    between atoms: _267  and  _268
REMARK  108  A    between atoms: _273  and  _275
REMARK  109  A    between atoms: _275  and  _276
REMARK  110  A    between atoms: _275  and  _278
REMARK  111  A    between atoms: _278  and  _279
REMARK  112  A    between atoms: _284  and  _285
REMARK  113  A    between atoms: _287  and  _289
REMARK  114  A    between atoms: _289  and  _290
REMARK  115  A    between atoms: _289  and  _292
REMARK  116  A    between atoms: _292  and  _293
REMARK  117  A    between atoms: _295  and  _297
REMARK  118  A    between atoms: _297  and  _298
REMARK  119  A    between atoms: _297  and  _300
REMARK  120  A    between atoms: _300  and  _301
REMARK  121  A    between atoms: _304  and  _306
REMARK  122  A    between atoms: _306  and  _307
REMARK  123  A    between atoms: _306  and  _309
REMARK  124  A    between atoms: _309  and  _310
REMARK  125  A    between atoms: _310  and  _311
REMARK  126  A    between atoms: _311  and  _312
REMARK  127  A    between atoms: _321  and  _323
REMARK  128  A    between atoms: _323  and  _324
REMARK  129  A    between atoms: _323  and  _326
REMARK  130  A    between atoms: _326  and  _327
REMARK  131  A    between atoms: _337  and  _339
REMARK  132  A    between atoms: _339  and  _340
REMARK  133  A    between atoms: _339  and  _342
REMARK  134  A    between atoms: _342  and  _343
REMARK                            x       y       z     vdW  Elec       q    Type
REMARK                         _______ _______ _______ _____ _____    ______ ____
ROOT
ATOM      1  CA  GLU A   1      73.145  95.167  26.791  0.00  0.00    +0.134 C 
ENDROOT
BRANCH   1   2
ATOM      2  N   GLU A   1      74.111  96.219  26.522  0.00  0.00    -0.239 NA
ATOM      3  H   GLU A   1      75.119  96.042  26.706  0.00  0.00    +0.142 HD
ENDBRANCH   1   2
BRANCH   1   4
ATOM      4  C   GLU A   1      72.291  95.533  27.998  0.00  0.00    +0.224 C 
ATOM      5  O   GLU A   1      72.805  95.990  29.015  0.00  0.00    -0.287 OA
ENDBRANCH   1   4
BRANCH   1   6
ATOM      6  CB  GLU A   1      73.844  93.827  27.037  0.00  0.00    +0.037 C 
BRANCH   6   7
ATOM      7  CG  GLU A   1      72.975  92.813  27.772  0.00  0.00    +0.116 C 
BRANCH   7   8
ATOM      8  CD  GLU A   1      73.676  91.494  28.025  0.00  0.00    +0.365 C 
ATOM      9  OE2 GLU A   1      73.015  90.560  28.519  0.00  0.00    -0.246 OA
ATOM     10  OE1 GLU A   1      74.883  91.386  27.734  0.00  0.00    -0.246 OA
ENDBRANCH   7   8
ENDBRANCH   6   7
ENDBRANCH   1   6
TORSDOF 5
REMARK  Name = ../refined-set-2016/4ufh/4ufh_pocket.pdb
REMARK  134 active torsions:
REMARK  status: ('A' for Active; 'I' for Inactive)
REMARK    1  A    between atoms: _1  and  _3
REMARK    2  A    between atoms: _3  and  _4
REMARK    3  A    between atoms: _3  and  _6
REMARK    4  A    between atoms: _9  and  _11
REMARK    5  A    between atoms: _11  and  _12
REMARK    6  A    between atoms: _14  and  _16
REMARK    7  A    between atoms: _16  and  _17
REMARK    8  A    between atoms: _19  and  _21
REMARK    9  A    between atoms: _21  and  _22
REMARK   10  A    between atoms: _24  and  _26
REMARK   11  A    between atoms: _26  and  _27
REMARK   12  A    between atoms: _30  and  _32
REMARK   13  A    between atoms: _32  and  _33
REMARK   14  A    between atoms: _32  and  _35
REMARK   15  A    between atoms: _35  and  _36
REMARK   16  A    between atoms: _39  and  _41
REMARK   17  A    between atoms: _41  and  _42
REMARK   18  A    between atoms: _41  and  _44
REMARK   19  A    between atoms: _44  and  _45
REMARK   20  A    between atoms: _45  and  _46
REMARK   21  A    between atoms: _46  and  _47
REMARK   22  A    between atoms: _47  and  _48
REMARK   23  A    between atoms: _52  and  _54
REMARK   24  A    between atoms: _54  and  _55
REMARK   25  A    between atoms: _54  and  _57
REMARK   26  A    between atoms: _57  and  _58
REMARK   27  A    between atoms: _58  and  _59
REMARK   28  A    between atoms: _62  and  _64
REMARK   29  A    between atoms: _64  and  _65
REMARK   30  A    between atoms: _64  and  _67
REMARK   31  A    between atoms: _67  and  _68
REMARK   32  A    between atoms: _71  and  _73
REMARK   33  A    between atoms: _73  and  _74
REMARK   34  A    between atoms: _73  and  _76
REMARK   35  A    between atoms: _76  and  _77
REMARK   36  A    between atoms: _80  and  _82
REMARK   37  A    between atoms: _82  and  _83
REMARK   38  A    between atoms: _82  and  _85
REMARK   39  A    between atoms: _85  and  _86
REMARK   40  A    between atoms: _89  and  _91
REMARK   41  A    between atoms: _91  and  _92
REMARK   42  A    between atoms: _94  and  _96
REMARK   43  A    between atoms: _96  and  _97
REMARK   44  A    between atoms: _96  and  _99
REMARK   45  A    between atoms: _99  and  _100
REMARK   46  A    between atoms: _103  and  _105
REMARK   47  A    between atoms: _105  and  _106
REMARK   48  A    between atoms: _105  and  _108
REMARK   49  A    between atoms: _108  and  _109
REMARK   50  A    between atoms: _119  and  _121
REMARK   51  A    between atoms: _121  and  _122
REMARK   52  A    between atoms: _121  and  _124
REMARK   53  A    between atoms: _124  and  _125
REMARK   54  A    between atoms: _130  and  _132
REMARK   55  A    between atoms: _132  and  _133
REMARK   56  A    between atoms: _132  and  _135
REMARK   57  A    between atoms: _135  and  _136
REMARK   58  A    between atoms: _136  and  _137
REMARK   59  A    between atoms: _140  and  _142
REMARK   60  A    between atoms: _142  and  _143
REMARK   61  A    between atoms: _142  and  _145
REMARK   62  A    between atoms: _145  and  _146
REMARK   63  A    between atoms: _146  and  _147
REMARK   64  A    between atoms: _147  and  _148
REMARK   65  A    between atoms: _157  and  _159
REMARK   66  A    between atoms: _159  and  _160
REMARK   67  A    between atoms: _159  and  _162
REMARK   68  A    between atoms: _162  and  _163
REMARK   69  A    between atoms: _166  and  _168
REMARK   70  A    between atoms: _168  and  _169
REMARK   71  A    between atoms: _168  and  _171
REMARK   72  A    between atoms: _171  and  _172
REMARK   73  A    between atoms: _177  and  _179
REMARK   74  A    between atoms: _179  and  _180
REMARK   75  A    between atoms: _179  and  _182
REMARK   76  A    between atoms: _182  and  _183
REMARK   77  A    between atoms: _188  and  _189
REMARK   78  A    between atoms: _191  and  _193
REMARK   79  A    between atoms: _193  and  _194
REMARK   80  A    between atoms: _193  and  _196
REMARK   81  A    between atoms: _196  and  _197
REMARK   82  A    between atoms: _197  and  _198
REMARK   83  A    between atoms: _201  and  _203
REMARK   84  A    between atoms: _203  and  _204
REMARK   85  A    between atoms: _203  and  _206
REMARK   86  A    between atoms: _206  and  _207
REMARK   87  A    between atoms: _210  and  _212
REMARK   88  A    between atoms: _212  and  _213
REMARK   89  A    between atoms: _212  and  _215
REMARK   90  A    between atoms: _215  and  _216
REMARK   91  A    between atoms: _222  and  _224
REMARK   92  A    between atoms: _224  and  _225
REMARK   93  A    between atoms: _224  and  _227
REMARK   94  A    between atoms: _227  and  _228
REMARK   95  A    between atoms: _230  and  _232
REMARK   96  A    between atoms: _232  and  _233
REMARK   97  A    between atoms: _232  and  _235
REMARK   98  A    between atoms: _235  and  _236
REMARK   99  A    between atoms: _239  and  _241
REMARK  100  A    between atoms: _241  and  _242
REMARK  101  A    between atoms: _241  and  _244
REMARK  102  A    between atoms: _244  and  _245
REMARK  103  A    between atoms: _255  and  _257
REMARK  104  A    between atoms: _257  and  _258
REMARK  105  A    between atoms: _257  and  _260
REMARK  106  A    between atoms: _260  and  _261
REMARK  107  A    between atoms: _267  and  _268
REMARK  108  A    between atoms: _273  and  _275
REMARK  109  A    between atoms: _275  and  _276
REMARK  110  A    between atoms: _275  and  _278
REMARK  111  A    between atoms: _278  and  _279
REMARK  112  A    between atoms: _284  and  _285
REMARK  113  A    between atoms: _287  and  _289
REMARK  114  A    between atoms: _289  and  _290
REMARK  115  A    between atoms: _289  and  _292
REMARK  116  A    between atoms: _292  and  _293
REMARK  117  A    between atoms: _295  and  _297
REMARK  118  A    between atoms: _297  and  _298
REMARK  119  A    between atoms: _297  and  _300
REMARK  120  A    between atoms: _300  and  _301
REMARK  121  A    between atoms: _304  and  _306
REMARK  122  A    between atoms: _306  and  _307
REMARK  123  A    between atoms: _306  and  _309
REMARK  124  A    between atoms: _309  and  _310
REMARK  125  A    between atoms: _310  and  _311
REMARK  126  A    between atoms: _311  and  _312
REMARK  127  A    between atoms: _321  and  _323
REMARK  128  A    between atoms: _323  and  _324
REMARK  129  A    between atoms: _323  and  _326
REMARK  130  A    between atoms: _326  and  _327
REMARK  131  A    between atoms: _337  and  _339
REMARK  132  A    between atoms: _339  and  _340
REMARK  133  A    between atoms: _339  and  _342
REMARK  134  A    between atoms: _342  and  _343
REMARK                            x       y       z     vdW  Elec       q    Type
REMARK                         _______ _______ _______ _____ _____    ______ ____
ROOT
ATOM      1  CA  THR A   2      78.518  85.340  25.057  0.00  0.00    +0.176 C 
ENDROOT
BRANCH   1   3
ATOM      2  C   THR A   1      76.307  86.437  25.641  0.00  0.00    +0.241 C 
ATOM      3  N   THR A   2      77.373  85.680  25.943  0.00  0.00    -0.295 N 
ATOM      4  H   THR A   2      77.402  85.287  26.905  0.00  0.00    +0.150 HD
ATOM      5  O   THR A   1      76.269  87.267  24.735  0.00  0.00    -0.274 OA
BRANCH   2   6
ATOM      6  CA  THR A   1      75.072  86.258  26.532  0.00  0.00    +0.172 C 
BRANCH   6   7
ATOM      7  N   THR A   1      75.305  85.546  27.781  0.00  0.00    -0.236 NA
ATOM      8  H   THR A   1      76.121  85.793  28.377  0.00  0.00    +0.142 HD
ENDBRANCH   6   7
BRANCH   6   9
ATOM      9  CB  THR A   1      74.453  87.642  26.811  0.00  0.00    +0.135 C 
ATOM     10  CG2 THR A   1      73.066  87.480  27.406  0.00  0.00    +0.034 C 
BRANCH   9  11
ATOM     11  OG1 THR A   1      75.270  88.358  27.741  0.00  0.00    -0.383 OA
ATOM     12  HG1 THR A   1      74.868  89.246  27.916  0.00  0.00    +0.210 HD
ENDBRANCH   9  11
ENDBRANCH   6   9
ENDBRANCH   2   6
ENDBRANCH   1   3
BRANCH   1  13
ATOM     13  C   THR A   2      79.819  85.151  25.845  0.00  0.00    +0.243 C 
ATOM     14  N   ASP A   3      80.137  86.095  26.727  0.00  0.00    -0.296 N 
ATOM     15  H   ASP A   3      79.512  86.919  26.839  0.00  0.00    +0.150 HD
ATOM     16  O   THR A   2      80.529  84.166  25.644  0.00  0.00    -0.273 OA
BRANCH  14  17
ATOM     17  CA  ASP A   3      81.347  85.998  27.542  0.00  0.00    +0.160 C 
BRANCH  17  18
ATOM     18  C   ASP A   3      81.013  86.058  29.028  0.00  0.00    +0.241 C 
ATOM     19  O   ASP A   3      81.889  86.281  29.870  0.00  0.00    -0.273 OA
ATOM     20  N   GLY A   4      79.739  85.857  29.345  0.00  0.00    -0.296 N 
ATOM     21  H   GLY A   4      79.051  85.674  28.587  0.00  0.00    +0.150 HD
BRANCH  20  22
ATOM     22  CA  GLY A   4      79.283  85.886  30.719  0.00  0.00    +0.163 C 
BRANCH  22  23
ATOM     23  C   GLY A   4      77.842  86.334  30.833  0.00  0.00    +0.229 C 
ATOM     24  O   GLY A   4      77.188  86.632  29.833  0.00  0.00    -0.286 OA
ENDBRANCH  22  23
ENDBRANCH  20  22
ENDBRANCH  17  18
BRANCH  17  25
ATOM     25  CB  ASP A   3      82.341  87.103  27.188  0.00  0.00    +0.143 C 
BRANCH  25  26
ATOM     26  CG  ASP A   3      82.882  86.967  25.779  0.00  0.00    +0.367 C 
ATOM     27  OD2 ASP A   3      83.702  86.059  25.563  0.00  0.00    -0.246 OA
ATOM     28  OD1 ASP A   3      82.491  87.768  24.907  0.00  0.00    -0.246 OA
ENDBRANCH  25  26
ENDBRANCH  17  25
ENDBRANCH  14  17
ENDBRANCH   1  13
BRANCH   1  29
ATOM     29  CB  THR A   2      78.799  86.376  23.939  0.00  0.00    +0.137 C 
ATOM     30  CG2 THR A   2      80.081  86.038  23.197  0.00  0.00    +0.034 C 
BRANCH  29  31
ATOM     31  OG1 THR A   2      77.715  86.363  23.004  0.00  0.00    -0.382 OA
ATOM     32  HG1 THR A   2      77.890  87.024  22.288  0.00  0.00    +0.210 HD
ENDBRANCH  29  31
ENDBRANCH   1  29
TORSDOF 14
REMARK  Name = ../refined-set-2016/4ufh/4ufh_pocket.pdb
REMARK  134 active torsions:
REMARK  status: ('A' for Active; 'I' for Inactive)
REMARK    1  A    between atoms: _1  and  _3
REMARK    2  A    between atoms: _3  and  _4
REMARK    3  A    between atoms: _3  and  _6
REMARK    4  A    between atoms: _9  and  _11
REMARK    5  A    between atoms: _11  and  _12
REMARK    6  A    between atoms: _14  and  _16
REMARK    7  A    between atoms: _16  and  _17
REMARK    8  A    between atoms: _19  and  _21
REMARK    9  A    between atoms: _21  and  _22
REMARK   10  A    between atoms: _24  and  _26
REMARK   11  A    between atoms: _26  and  _27
REMARK   12  A    between atoms: _30  and  _32
REMARK   13  A    between atoms: _32  and  _33
REMARK   14  A    between atoms: _32  and  _35
REMARK   15  A    between atoms: _35  and  _36
REMARK   16  A    between atoms: _39  and  _41
REMARK   17  A    between atoms: _41  and  _42
REMARK   18  A    between atoms: _41  and  _44
REMARK   19  A    between atoms: _44  and  _45
REMARK   20  A    between atoms: _45  and  _46
REMARK   21  A    between atoms: _46  and  _47
REMARK   22  A    between atoms: _47  and  _48
REMARK   23  A    between atoms: _52  and  _54
REMARK   24  A    between atoms: _54  and  _55
REMARK   25  A    between atoms: _54  and  _57
REMARK   26  A    between atoms: _57  and  _58
REMARK   27  A    between atoms: _58  and  _59
REMARK   28  A    between atoms: _62  and  _64
REMARK   29  A    between atoms: _64  and  _65
REMARK   30  A    between atoms: _64  and  _67
REMARK   31  A    between atoms: _67  and  _68
REMARK   32  A    between atoms: _71  and  _73
REMARK   33  A    between atoms: _73  and  _74
REMARK   34  A    between atoms: _73  and  _76
REMARK   35  A    between atoms: _76  and  _77
REMARK   36  A    between atoms: _80  and  _82
REMARK   37  A    between atoms: _82  and  _83
REMARK   38  A    between atoms: _82  and  _85
REMARK   39  A    between atoms: _85  and  _86
REMARK   40  A    between atoms: _89  and  _91
REMARK   41  A    between atoms: _91  and  _92
REMARK   42  A    between atoms: _94  and  _96
REMARK   43  A    between atoms: _96  and  _97
REMARK   44  A    between atoms: _96  and  _99
REMARK   45  A    between atoms: _99  and  _100
REMARK   46  A    between atoms: _103  and  _105
REMARK   47  A    between atoms: _105  and  _106
REMARK   48  A    between atoms: _105  and  _108
REMARK   49  A    between atoms: _108  and  _109
REMARK   50  A    between atoms: _119  and  _121
REMARK   51  A    between atoms: _121  and  _122
REMARK   52  A    between atoms: _121  and  _124
REMARK   53  A    between atoms: _124  and  _125
REMARK   54  A    between atoms: _130  and  _132
REMARK   55  A    between atoms: _132  and  _133
REMARK   56  A    between atoms: _132  and  _135
REMARK   57  A    between atoms: _135  and  _136
REMARK   58  A    between atoms: _136  and  _137
REMARK   59  A    between atoms: _140  and  _142
REMARK   60  A    between atoms: _142  and  _143
REMARK   61  A    between atoms: _142  and  _145
REMARK   62  A    between atoms: _145  and  _146
REMARK   63  A    between atoms: _146  and  _147
REMARK   64  A    between atoms: _147  and  _148
REMARK   65  A    between atoms: _157  and  _159
REMARK   66  A    between atoms: _159  and  _160
REMARK   67  A    between atoms: _159  and  _162
REMARK   68  A    between atoms: _162  and  _163
REMARK   69  A    between atoms: _166  and  _168
REMARK   70  A    between atoms: _168  and  _169
REMARK   71  A    between atoms: _168  and  _171
REMARK   72  A    between atoms: _171  and  _172
REMARK   73  A    between atoms: _177  and  _179
REMARK   74  A    between atoms: _179  and  _180
REMARK   75  A    between atoms: _179  and  _182
REMARK   76  A    between atoms: _182  and  _183
REMARK   77  A    between atoms: _188  and  _189
REMARK   78  A    between atoms: _191  and  _193
REMARK   79  A    between atoms: _193  and  _194
REMARK   80  A    between atoms: _193  and  _196
REMARK   81  A    between atoms: _196  and  _197
REMARK   82  A    between atoms: _197  and  _198
REMARK   83  A    between atoms: _201  and  _203
REMARK   84  A    between atoms: _203  and  _204
REMARK   85  A    between atoms: _203  and  _206
REMARK   86  A    between atoms: _206  and  _207
REMARK   87  A    between atoms: _210  and  _212
REMARK   88  A    between atoms: _212  and  _213
REMARK   89  A    between atoms: _212  and  _215
REMARK   90  A    between atoms: _215  and  _216
REMARK   91  A    between atoms: _222  and  _224
REMARK   92  A    between atoms: _224  and  _225
REMARK   93  A    between atoms: _224  and  _227
REMARK   94  A    between atoms: _227  and  _228
REMARK   95  A    between atoms: _230  and  _232
REMARK   96  A    between atoms: _232  and  _233
REMARK   97  A    between atoms: _232  and  _235
REMARK   98  A    between atoms: _235  and  _236
REMARK   99  A    between atoms: _239  and  _241
REMARK  100  A    between atoms: _241  and  _242
REMARK  101  A    between atoms: _241  and  _244
REMARK  102  A    between atoms: _244  and  _245
REMARK  103  A    between atoms: _255  and  _257
REMARK  104  A    between atoms: _257  and  _258
REMARK  105  A    between atoms: _257  and  _260
REMARK  106  A    between atoms: _260  and  _261
REMARK  107  A    between atoms: _267  and  _268
REMARK  108  A    between atoms: _273  and  _275
REMARK  109  A    between atoms: _275  and  _276
REMARK  110  A    between atoms: _275  and  _278
REMARK  111  A    between atoms: _278  and  _279
REMARK  112  A    between atoms: _284  and  _285
REMARK  113  A    between atoms: _287  and  _289
REMARK  114  A    between atoms: _289  and  _290
REMARK  115  A    between atoms: _289  and  _292
REMARK  116  A    between atoms: _292  and  _293
REMARK  117  A    between atoms: _295  and  _297
REMARK  118  A    between atoms: _297  and  _298
REMARK  119  A    between atoms: _297  and  _300
REMARK  120  A    between atoms: _300  and  _301
REMARK  121  A    between atoms: _304  and  _306
REMARK  122  A    between atoms: _306  and  _307
REMARK  123  A    between atoms: _306  and  _309
REMARK  124  A    between atoms: _309  and  _310
REMARK  125  A    between atoms: _310  and  _311
REMARK  126  A    between atoms: _311  and  _312
REMARK  127  A    between atoms: _321  and  _323
REMARK  128  A    between atoms: _323  and  _324
REMARK  129  A    between atoms: _323  and  _326
REMARK  130  A    between atoms: _326  and  _327
REMARK  131  A    between atoms: _337  and  _339
REMARK  132  A    between atoms: _339  and  _340
REMARK  133  A    between atoms: _339  and  _342
REMARK  134  A    between atoms: _342  and  _343
REMARK                            x       y       z     vdW  Elec       q    Type
REMARK                         _______ _______ _______ _____ _____    ______ ____
ROOT
ATOM      1  CA  LEU A   1      69.205  96.180  23.773  0.00  0.00    +0.133 C 
ENDROOT
BRANCH   1   2
ATOM      2  N   LEU A   1      69.784  97.330  24.457  0.00  0.00    -0.239 NA
ATOM      3  H   LEU A   1      70.569  97.182  25.123  0.00  0.00    +0.142 HD
ENDBRANCH   1   2
BRANCH   1   4
ATOM      4  C   LEU A   1      69.280  94.932  24.644  0.00  0.00    +0.224 C 
ATOM      5  O   LEU A   1      70.344  94.599  25.160  0.00  0.00    -0.287 OA
ENDBRANCH   1   4
BRANCH   1   6
ATOM      6  CB  LEU A   1      69.920  95.939  22.441  0.00  0.00    +0.025 C 
BRANCH   6   7
ATOM      7  CG  LEU A   1      69.585  94.667  21.659  0.00  0.00    +0.002 C 
ATOM      8  CD2 LEU A   1      68.172  94.718  21.098  0.00  0.00    +0.000 C 
ATOM      9  CD1 LEU A   1      70.596  94.452  20.546  0.00  0.00    +0.000 C 
ENDBRANCH   6   7
ENDBRANCH   1   6
TORSDOF 4
REMARK  Name = ../refined-set-2016/4ufh/4ufh_pocket.pdb
REMARK  134 active torsions:
REMARK  status: ('A' for Active; 'I' for Inactive)
REMARK    1  A    between atoms: _1  and  _3
REMARK    2  A    between atoms: _3  and  _4
REMARK    3  A    between atoms: _3  and  _6
REMARK    4  A    between atoms: _9  and  _11
REMARK    5  A    between atoms: _11  and  _12
REMARK    6  A    between atoms: _14  and  _16
REMARK    7  A    between atoms: _16  and  _17
REMARK    8  A    between atoms: _19  and  _21
REMARK    9  A    between atoms: _21  and  _22
REMARK   10  A    between atoms: _24  and  _26
REMARK   11  A    between atoms: _26  and  _27
REMARK   12  A    between atoms: _30  and  _32
REMARK   13  A    between atoms: _32  and  _33
REMARK   14  A    between atoms: _32  and  _35
REMARK   15  A    between atoms: _35  and  _36
REMARK   16  A    between atoms: _39  and  _41
REMARK   17  A    between atoms: _41  and  _42
REMARK   18  A    between atoms: _41  and  _44
REMARK   19  A    between atoms: _44  and  _45
REMARK   20  A    between atoms: _45  and  _46
REMARK   21  A    between atoms: _46  and  _47
REMARK   22  A    between atoms: _47  and  _48
REMARK   23  A    between atoms: _52  and  _54
REMARK   24  A    between atoms: _54  and  _55
REMARK   25  A    between atoms: _54  and  _57
REMARK   26  A    between atoms: _57  and  _58
REMARK   27  A    between atoms: _58  and  _59
REMARK   28  A    between atoms: _62  and  _64
REMARK   29  A    between atoms: _64  and  _65
REMARK   30  A    between atoms: _64  and  _67
REMARK   31  A    between atoms: _67  and  _68
REMARK   32  A    between atoms: _71  and  _73
REMARK   33  A    between atoms: _73  and  _74
REMARK   34  A    between atoms: _73  and  _76
REMARK   35  A    between atoms: _76  and  _77
REMARK   36  A    between atoms: _80  and  _82
REMARK   37  A    between atoms: _82  and  _83
REMARK   38  A    between atoms: _82  and  _85
REMARK   39  A    between atoms: _85  and  _86
REMARK   40  A    between atoms: _89  and  _91
REMARK   41  A    between atoms: _91  and  _92
REMARK   42  A    between atoms: _94  and  _96
REMARK   43  A    between atoms: _96  and  _97
REMARK   44  A    between atoms: _96  and  _99
REMARK   45  A    between atoms: _99  and  _100
REMARK   46  A    between atoms: _103  and  _105
REMARK   47  A    between atoms: _105  and  _106
REMARK   48  A    between atoms: _105  and  _108
REMARK   49  A    between atoms: _108  and  _109
REMARK   50  A    between atoms: _119  and  _121
REMARK   51  A    between atoms: _121  and  _122
REMARK   52  A    between atoms: _121  and  _124
REMARK   53  A    between atoms: _124  and  _125
REMARK   54  A    between atoms: _130  and  _132
REMARK   55  A    between atoms: _132  and  _133
REMARK   56  A    between atoms: _132  and  _135
REMARK   57  A    between atoms: _135  and  _136
REMARK   58  A    between atoms: _136  and  _137
REMARK   59  A    between atoms: _140  and  _142
REMARK   60  A    between atoms: _142  and  _143
REMARK   61  A    between atoms: _142  and  _145
REMARK   62  A    between atoms: _145  and  _146
REMARK   63  A    between atoms: _146  and  _147
REMARK   64  A    between atoms: _147  and  _148
REMARK   65  A    between atoms: _157  and  _159
REMARK   66  A    between atoms: _159  and  _160
REMARK   67  A    between atoms: _159  and  _162
REMARK   68  A    between atoms: _162  and  _163
REMARK   69  A    between atoms: _166  and  _168
REMARK   70  A    between atoms: _168  and  _169
REMARK   71  A    between atoms: _168  and  _171
REMARK   72  A    between atoms: _171  and  _172
REMARK   73  A    between atoms: _177  and  _179
REMARK   74  A    between atoms: _179  and  _180
REMARK   75  A    between atoms: _179  and  _182
REMARK   76  A    between atoms: _182  and  _183
REMARK   77  A    between atoms: _188  and  _189
REMARK   78  A    between atoms: _191  and  _193
REMARK   79  A    between atoms: _193  and  _194
REMARK   80  A    between atoms: _193  and  _196
REMARK   81  A    between atoms: _196  and  _197
REMARK   82  A    between atoms: _197  and  _198
REMARK   83  A    between atoms: _201  and  _203
REMARK   84  A    between atoms: _203  and  _204
REMARK   85  A    between atoms: _203  and  _206
REMARK   86  A    between atoms: _206  and  _207
REMARK   87  A    between atoms: _210  and  _212
REMARK   88  A    between atoms: _212  and  _213
REMARK   89  A    between atoms: _212  and  _215
REMARK   90  A    between atoms: _215  and  _216
REMARK   91  A    between atoms: _222  and  _224
REMARK   92  A    between atoms: _224  and  _225
REMARK   93  A    between atoms: _224  and  _227
REMARK   94  A    between atoms: _227  and  _228
REMARK   95  A    between atoms: _230  and  _232
REMARK   96  A    between atoms: _232  and  _233
REMARK   97  A    between atoms: _232  and  _235
REMARK   98  A    between atoms: _235  and  _236
REMARK   99  A    between atoms: _239  and  _241
REMARK  100  A    between atoms: _241  and  _242
REMARK  101  A    between atoms: _241  and  _244
REMARK  102  A    between atoms: _244  and  _245
REMARK  103  A    between atoms: _255  and  _257
REMARK  104  A    between atoms: _257  and  _258
REMARK  105  A    between atoms: _257  and  _260
REMARK  106  A    between atoms: _260  and  _261
REMARK  107  A    between atoms: _267  and  _268
REMARK  108  A    between atoms: _273  and  _275
REMARK  109  A    between atoms: _275  and  _276
REMARK  110  A    between atoms: _275  and  _278
REMARK  111  A    between atoms: _278  and  _279
REMARK  112  A    between atoms: _284  and  _285
REMARK  113  A    between atoms: _287  and  _289
REMARK  114  A    between atoms: _289  and  _290
REMARK  115  A    between atoms: _289  and  _292
REMARK  116  A    between atoms: _292  and  _293
REMARK  117  A    between atoms: _295  and  _297
REMARK  118  A    between atoms: _297  and  _298
REMARK  119  A    between atoms: _297  and  _300
REMARK  120  A    between atoms: _300  and  _301
REMARK  121  A    between atoms: _304  and  _306
REMARK  122  A    between atoms: _306  and  _307
REMARK  123  A    between atoms: _306  and  _309
REMARK  124  A    between atoms: _309  and  _310
REMARK  125  A    between atoms: _310  and  _311
REMARK  126  A    between atoms: _311  and  _312
REMARK  127  A    between atoms: _321  and  _323
REMARK  128  A    between atoms: _323  and  _324
REMARK  129  A    between atoms: _323  and  _326
REMARK  130  A    between atoms: _326  and  _327
REMARK  131  A    between atoms: _337  and  _339
REMARK  132  A    between atoms: _339  and  _340
REMARK  133  A    between atoms: _339  and  _342
REMARK  134  A    between atoms: _342  and  _343
REMARK                            x       y       z     vdW  Elec       q    Type
REMARK                         _______ _______ _______ _____ _____    ______ ____
ROOT
ATOM      1  CG  TRP A   1      72.380  89.791  24.175  0.00  0.00    -0.002 A 
ATOM      2  CD2 TRP A   1      72.770  91.109  23.773  0.00  0.00    +0.013 A 
ATOM      3  CE3 TRP A   1      72.350  92.395  24.124  0.00  0.00    +0.001 A 
ATOM      4  CZ3 TRP A   1      72.952  93.478  23.516  0.00  0.00    +0.000 A 
ATOM      5  CH2 TRP A   1      73.962  93.305  22.561  0.00  0.00    +0.001 A 
ATOM      6  CZ2 TRP A   1      74.395  92.060  22.197  0.00  0.00    +0.017 A 
ATOM      7  CE2 TRP A   1      73.790  90.966  22.813  0.00  0.00    +0.056 A 
ATOM      8  NE1 TRP A   1      74.017  89.626  22.652  0.00  0.00    -0.352 N 
ATOM      9  HE1 TRP A   1      74.718  89.205  22.010  0.00  0.00    +0.166 HD
ATOM     10  CD1 TRP A   1      73.170  88.930  23.474  0.00  0.00    +0.068 A 
ENDROOT
BRANCH   1  11
ATOM     11  CB  TRP A   1      71.354  89.423  25.203  0.00  0.00    +0.053 C 
BRANCH  11  12
ATOM     12  CA  TRP A   1      69.887  89.685  24.874  0.00  0.00    +0.137 C 
BRANCH  12  13
ATOM     13  N   TRP A   1      69.462  90.976  25.398  0.00  0.00    -0.239 NA
ATOM     14  H   TRP A   1      69.825  91.276  26.325  0.00  0.00    +0.142 HD
ENDBRANCH  12  13
BRANCH  12  15
ATOM     15  C   TRP A   1      69.023  88.593  25.500  0.00  0.00    +0.224 C 
ATOM     16  O   TRP A   1      68.459  87.742  24.814  0.00  0.00    -0.287 OA
ENDBRANCH  12  15
ENDBRANCH  11  12
ENDBRANCH   1  11
TORSDOF 4
REMARK  Name = ../refined-set-2016/4ufh/4ufh_pocket.pdb
REMARK  134 active torsions:
REMARK  status: ('A' for Active; 'I' for Inactive)
REMARK    1  A    between atoms: _1  and  _3
REMARK    2  A    between atoms: _3  and  _4
REMARK    3  A    between atoms: _3  and  _6
REMARK    4  A    between atoms: _9  and  _11
REMARK    5  A    between atoms: _11  and  _12
REMARK    6  A    between atoms: _14  and  _16
REMARK    7  A    between atoms: _16  and  _17
REMARK    8  A    between atoms: _19  and  _21
REMARK    9  A    between atoms: _21  and  _22
REMARK   10  A    between atoms: _24  and  _26
REMARK   11  A    between atoms: _26  and  _27
REMARK   12  A    between atoms: _30  and  _32
REMARK   13  A    between atoms: _32  and  _33
REMARK   14  A    between atoms: _32  and  _35
REMARK   15  A    between atoms: _35  and  _36
REMARK   16  A    between atoms: _39  and  _41
REMARK   17  A    between atoms: _41  and  _42
REMARK   18  A    between atoms: _41  and  _44
REMARK   19  A    between atoms: _44  and  _45
REMARK   20  A    between atoms: _45  and  _46
REMARK   21  A    between atoms: _46  and  _47
REMARK   22  A    between atoms: _47  and  _48
REMARK   23  A    between atoms: _52  and  _54
REMARK   24  A    between atoms: _54  and  _55
REMARK   25  A    between atoms: _54  and  _57
REMARK   26  A    between atoms: _57  and  _58
REMARK   27  A    between atoms: _58  and  _59
REMARK   28  A    between atoms: _62  and  _64
REMARK   29  A    between atoms: _64  and  _65
REMARK   30  A    between atoms: _64  and  _67
REMARK   31  A    between atoms: _67  and  _68
REMARK   32  A    between atoms: _71  and  _73
REMARK   33  A    between atoms: _73  and  _74
REMARK   34  A    between atoms: _73  and  _76
REMARK   35  A    between atoms: _76  and  _77
REMARK   36  A    between atoms: _80  and  _82
REMARK   37  A    between atoms: _82  and  _83
REMARK   38  A    between atoms: _82  and  _85
REMARK   39  A    between atoms: _85  and  _86
REMARK   40  A    between atoms: _89  and  _91
REMARK   41  A    between atoms: _91  and  _92
REMARK   42  A    between atoms: _94  and  _96
REMARK   43  A    between atoms: _96  and  _97
REMARK   44  A    between atoms: _96  and  _99
REMARK   45  A    between atoms: _99  and  _100
REMARK   46  A    between atoms: _103  and  _105
REMARK   47  A    between atoms: _105  and  _106
REMARK   48  A    between atoms: _105  and  _108
REMARK   49  A    between atoms: _108  and  _109
REMARK   50  A    between atoms: _119  and  _121
REMARK   51  A    between atoms: _121  and  _122
REMARK   52  A    between atoms: _121  and  _124
REMARK   53  A    between atoms: _124  and  _125
REMARK   54  A    between atoms: _130  and  _132
REMARK   55  A    between atoms: _132  and  _133
REMARK   56  A    between atoms: _132  and  _135
REMARK   57  A    between atoms: _135  and  _136
REMARK   58  A    between atoms: _136  and  _137
REMARK   59  A    between atoms: _140  and  _142
REMARK   60  A    between atoms: _142  and  _143
REMARK   61  A    between atoms: _142  and  _145
REMARK   62  A    between atoms: _145  and  _146
REMARK   63  A    between atoms: _146  and  _147
REMARK   64  A    between atoms: _147  and  _148
REMARK   65  A    between atoms: _157  and  _159
REMARK   66  A    between atoms: _159  and  _160
REMARK   67  A    between atoms: _159  and  _162
REMARK   68  A    between atoms: _162  and  _163
REMARK   69  A    between atoms: _166  and  _168
REMARK   70  A    between atoms: _168  and  _169
REMARK   71  A    between atoms: _168  and  _171
REMARK   72  A    between atoms: _171  and  _172
REMARK   73  A    between atoms: _177  and  _179
REMARK   74  A    between atoms: _179  and  _180
REMARK   75  A    between atoms: _179  and  _182
REMARK   76  A    between atoms: _182  and  _183
REMARK   77  A    between atoms: _188  and  _189
REMARK   78  A    between atoms: _191  and  _193
REMARK   79  A    between atoms: _193  and  _194
REMARK   80  A    between atoms: _193  and  _196
REMARK   81  A    between atoms: _196  and  _197
REMARK   82  A    between atoms: _197  and  _198
REMARK   83  A    between atoms: _201  and  _203
REMARK   84  A    between atoms: _203  and  _204
REMARK   85  A    between atoms: _203  and  _206
REMARK   86  A    between atoms: _206  and  _207
REMARK   87  A    between atoms: _210  and  _212
REMARK   88  A    between atoms: _212  and  _213
REMARK   89  A    between atoms: _212  and  _215
REMARK   90  A    between atoms: _215  and  _216
REMARK   91  A    between atoms: _222  and  _224
REMARK   92  A    between atoms: _224  and  _225
REMARK   93  A    between atoms: _224  and  _227
REMARK   94  A    between atoms: _227  and  _228
REMARK   95  A    between atoms: _230  and  _232
REMARK   96  A    between atoms: _232  and  _233
REMARK   97  A    between atoms: _232  and  _235
REMARK   98  A    between atoms: _235  and  _236
REMARK   99  A    between atoms: _239  and  _241
REMARK  100  A    between atoms: _241  and  _242
REMARK  101  A    between atoms: _241  and  _244
REMARK  102  A    between atoms: _244  and  _245
REMARK  103  A    between atoms: _255  and  _257
REMARK  104  A    between atoms: _257  and  _258
REMARK  105  A    between atoms: _257  and  _260
REMARK  106  A    between atoms: _260  and  _261
REMARK  107  A    between atoms: _267  and  _268
REMARK  108  A    between atoms: _273  and  _275
REMARK  109  A    between atoms: _275  and  _276
REMARK  110  A    between atoms: _275  and  _278
REMARK  111  A    between atoms: _278  and  _279
REMARK  112  A    between atoms: _284  and  _285
REMARK  113  A    between atoms: _287  and  _289
REMARK  114  A    between atoms: _289  and  _290
REMARK  115  A    between atoms: _289  and  _292
REMARK  116  A    between atoms: _292  and  _293
REMARK  117  A    between atoms: _295  and  _297
REMARK  118  A    between atoms: _297  and  _298
REMARK  119  A    between atoms: _297  and  _300
REMARK  120  A    between atoms: _300  and  _301
REMARK  121  A    between atoms: _304  and  _306
REMARK  122  A    between atoms: _306  and  _307
REMARK  123  A    between atoms: _306  and  _309
REMARK  124  A    between atoms: _309  and  _310
REMARK  125  A    between atoms: _310  and  _311
REMARK  126  A    between atoms: _311  and  _312
REMARK  127  A    between atoms: _321  and  _323
REMARK  128  A    between atoms: _323  and  _324
REMARK  129  A    between atoms: _323  and  _326
REMARK  130  A    between atoms: _326  and  _327
REMARK  131  A    between atoms: _337  and  _339
REMARK  132  A    between atoms: _339  and  _340
REMARK  133  A    between atoms: _339  and  _342
REMARK  134  A    between atoms: _342  and  _343
REMARK                            x       y       z     vdW  Elec       q    Type
REMARK                         _______ _______ _______ _____ _____    ______ ____
ROOT
ATOM      1  CA  GLU A   2      69.456  88.296  17.009  0.00  0.00    +0.149 C 
ENDROOT
BRANCH   1   4
ATOM      2  C   ASN A   1      69.265  89.326  19.242  0.00  0.00    +0.239 C 
ATOM      3  O   ASN A   1      69.336  88.252  19.839  0.00  0.00    -0.274 OA
ATOM      4  N   GLU A   2      69.269  89.433  17.913  0.00  0.00    -0.297 N 
ATOM      5  H   GLU A   2      69.132  90.376  17.495  0.00  0.00    +0.150 HD
BRANCH   2   6
ATOM      6  CA  ASN A   1      69.166  90.644  20.009  0.00  0.00    +0.154 C 
BRANCH   6   7
ATOM      7  N   ASN A   1      67.943  90.839  20.787  0.00  0.00    -0.238 NA
ATOM      8  H   ASN A   1      68.030  91.152  21.775  0.00  0.00    +0.142 HD
ENDBRANCH   6   7
BRANCH   6   9
ATOM      9  CB  ASN A   1      70.386  90.766  20.922  0.00  0.00    +0.111 C 
BRANCH   9  10
ATOM     10  CG  ASN A   1      71.690  90.637  20.164  0.00  0.00    +0.221 C 
ATOM     11  ND2 ASN A   1      72.302  89.461  20.229  0.00  0.00    -0.329 N 
ATOM     12 HD21 ASN A   1      71.885  88.688  20.786  0.00  0.00    +0.145 HD
ATOM     13 HD22 ASN A   1      73.198  89.313  19.723  0.00  0.00    +0.145 HD
ATOM     14  OD1 ASN A   1      72.138  91.583  19.521  0.00  0.00    -0.275 OA
ENDBRANCH   9  10
ENDBRANCH   6   9
ENDBRANCH   2   6
ENDBRANCH   1   4
BRANCH   1  15
ATOM     15  C   GLU A   2      68.460  87.173  17.276  0.00  0.00    +0.241 C 
ATOM     16  N   ARG A   3      67.266  87.569  17.694  0.00  0.00    -0.298 N 
ATOM     17  H   ARG A   3      67.092  88.589  17.800  0.00  0.00    +0.150 HD
ATOM     18  O   GLU A   2      68.757  85.995  17.100  0.00  0.00    -0.273 OA
BRANCH  16  19
ATOM     19  CA  ARG A   3      66.188  86.647  18.012  0.00  0.00    +0.137 C 
BRANCH  19  20
ATOM     20  C   ARG A   3      64.916  87.172  17.369  0.00  0.00    +0.227 C 
ATOM     21  O   ARG A   3      64.846  88.356  17.040  0.00  0.00    -0.286 OA
ENDBRANCH  19  20
BRANCH  19  22
ATOM     22  CB  ARG A   3      66.021  86.508  19.530  0.00  0.00    +0.031 C 
BRANCH  22  23
ATOM     23  CG  ARG A   3      67.171  85.815  20.223  0.00  0.00    +0.045 C 
BRANCH  23  24
ATOM     24  CD  ARG A   3      67.350  84.401  19.705  0.00  0.00    +0.174 C 
BRANCH  24  25
ATOM     25  NE  ARG A   3      68.485  83.742  20.339  0.00  0.00    -0.265 N 
ATOM     26  HE  ARG A   3      68.299  83.152  21.175  0.00  0.00    +0.259 HD
ATOM     27  CZ  ARG A   3      69.741  83.845  19.920  0.00  0.00    +0.342 C 
ATOM     28  NH2 ARG A   3      70.706  83.207  20.564  0.00  0.00    -0.292 N 
ATOM     29 HH21 ARG A   3      70.480  82.626  21.397  0.00  0.00    +0.255 HD
ATOM     30 HH22 ARG A   3      71.690  83.287  20.237  0.00  0.00    +0.255 HD
ATOM     31  NH1 ARG A   3      70.033  84.582  18.855  0.00  0.00    -0.292 N 
ATOM     32 HH11 ARG A   3      71.018  84.660  18.531  0.00  0.00    +0.255 HD
ATOM     33 HH12 ARG A   3      69.277  85.082  18.345  0.00  0.00    +0.255 HD
ENDBRANCH  24  25
ENDBRANCH  23  24
ENDBRANCH  22  23
ENDBRANCH  19  22
ENDBRANCH  16  19
ENDBRANCH   1  15
BRANCH   1  34
ATOM     34  CB  GLU A   2      70.897  87.784  17.104  0.00  0.00    +0.041 C 
BRANCH  34  35
ATOM     35  CG  GLU A   2      71.904  88.809  16.603  0.00  0.00    +0.116 C 
BRANCH  35  36
ATOM     36  CD  GLU A   2      73.351  88.412  16.829  0.00  0.00    +0.365 C 
ATOM     37  OE2 GLU A   2      73.608  87.337  17.413  0.00  0.00    -0.246 OA
ATOM     38  OE1 GLU A   2      74.236  89.190  16.417  0.00  0.00    -0.246 OA
ENDBRANCH  35  36
ENDBRANCH  34  35
ENDBRANCH   1  34
TORSDOF 15
REMARK  Name = ../refined-set-2016/4ufh/4ufh_pocket.pdb
REMARK  134 active torsions:
REMARK  status: ('A' for Active; 'I' for Inactive)
REMARK    1  A    between atoms: _1  and  _3
REMARK    2  A    between atoms: _3  and  _4
REMARK    3  A    between atoms: _3  and  _6
REMARK    4  A    between atoms: _9  and  _11
REMARK    5  A    between atoms: _11  and  _12
REMARK    6  A    between atoms: _14  and  _16
REMARK    7  A    between atoms: _16  and  _17
REMARK    8  A    between atoms: _19  and  _21
REMARK    9  A    between atoms: _21  and  _22
REMARK   10  A    between atoms: _24  and  _26
REMARK   11  A    between atoms: _26  and  _27
REMARK   12  A    between atoms: _30  and  _32
REMARK   13  A    between atoms: _32  and  _33
REMARK   14  A    between atoms: _32  and  _35
REMARK   15  A    between atoms: _35  and  _36
REMARK   16  A    between atoms: _39  and  _41
REMARK   17  A    between atoms: _41  and  _42
REMARK   18  A    between atoms: _41  and  _44
REMARK   19  A    between atoms: _44  and  _45
REMARK   20  A    between atoms: _45  and  _46
REMARK   21  A    between atoms: _46  and  _47
REMARK   22  A    between atoms: _47  and  _48
REMARK   23  A    between atoms: _52  and  _54
REMARK   24  A    between atoms: _54  and  _55
REMARK   25  A    between atoms: _54  and  _57
REMARK   26  A    between atoms: _57  and  _58
REMARK   27  A    between atoms: _58  and  _59
REMARK   28  A    between atoms: _62  and  _64
REMARK   29  A    between atoms: _64  and  _65
REMARK   30  A    between atoms: _64  and  _67
REMARK   31  A    between atoms: _67  and  _68
REMARK   32  A    between atoms: _71  and  _73
REMARK   33  A    between atoms: _73  and  _74
REMARK   34  A    between atoms: _73  and  _76
REMARK   35  A    between atoms: _76  and  _77
REMARK   36  A    between atoms: _80  and  _82
REMARK   37  A    between atoms: _82  and  _83
REMARK   38  A    between atoms: _82  and  _85
REMARK   39  A    between atoms: _85  and  _86
REMARK   40  A    between atoms: _89  and  _91
REMARK   41  A    between atoms: _91  and  _92
REMARK   42  A    between atoms: _94  and  _96
REMARK   43  A    between atoms: _96  and  _97
REMARK   44  A    between atoms: _96  and  _99
REMARK   45  A    between atoms: _99  and  _100
REMARK   46  A    between atoms: _103  and  _105
REMARK   47  A    between atoms: _105  and  _106
REMARK   48  A    between atoms: _105  and  _108
REMARK   49  A    between atoms: _108  and  _109
REMARK   50  A    between atoms: _119  and  _121
REMARK   51  A    between atoms: _121  and  _122
REMARK   52  A    between atoms: _121  and  _124
REMARK   53  A    between atoms: _124  and  _125
REMARK   54  A    between atoms: _130  and  _132
REMARK   55  A    between atoms: _132  and  _133
REMARK   56  A    between atoms: _132  and  _135
REMARK   57  A    between atoms: _135  and  _136
REMARK   58  A    between atoms: _136  and  _137
REMARK   59  A    between atoms: _140  and  _142
REMARK   60  A    between atoms: _142  and  _143
REMARK   61  A    between atoms: _142  and  _145
REMARK   62  A    between atoms: _145  and  _146
REMARK   63  A    between atoms: _146  and  _147
REMARK   64  A    between atoms: _147  and  _148
REMARK   65  A    between atoms: _157  and  _159
REMARK   66  A    between atoms: _159  and  _160
REMARK   67  A    between atoms: _159  and  _162
REMARK   68  A    between atoms: _162  and  _163
REMARK   69  A    between atoms: _166  and  _168
REMARK   70  A    between atoms: _168  and  _169
REMARK   71  A    between atoms: _168  and  _171
REMARK   72  A    between atoms: _171  and  _172
REMARK   73  A    between atoms: _177  and  _179
REMARK   74  A    between atoms: _179  and  _180
REMARK   75  A    between atoms: _179  and  _182
REMARK   76  A    between atoms: _182  and  _183
REMARK   77  A    between atoms: _188  and  _189
REMARK   78  A    between atoms: _191  and  _193
REMARK   79  A    between atoms: _193  and  _194
REMARK   80  A    between atoms: _193  and  _196
REMARK   81  A    between atoms: _196  and  _197
REMARK   82  A    between atoms: _197  and  _198
REMARK   83  A    between atoms: _201  and  _203
REMARK   84  A    between atoms: _203  and  _204
REMARK   85  A    between atoms: _203  and  _206
REMARK   86  A    between atoms: _206  and  _207
REMARK   87  A    between atoms: _210  and  _212
REMARK   88  A    between atoms: _212  and  _213
REMARK   89  A    between atoms: _212  and  _215
REMARK   90  A    between atoms: _215  and  _216
REMARK   91  A    between atoms: _222  and  _224
REMARK   92  A    between atoms: _224  and  _225
REMARK   93  A    between atoms: _224  and  _227
REMARK   94  A    between atoms: _227  and  _228
REMARK   95  A    between atoms: _230  and  _232
REMARK   96  A    between atoms: _232  and  _233
REMARK   97  A    between atoms: _232  and  _235
REMARK   98  A    between atoms: _235  and  _236
REMARK   99  A    between atoms: _239  and  _241
REMARK  100  A    between atoms: _241  and  _242
REMARK  101  A    between atoms: _241  and  _244
REMARK  102  A    between atoms: _244  and  _245
REMARK  103  A    between atoms: _255  and  _257
REMARK  104  A    between atoms: _257  and  _258
REMARK  105  A    between atoms: _257  and  _260
REMARK  106  A    between atoms: _260  and  _261
REMARK  107  A    between atoms: _267  and  _268
REMARK  108  A    between atoms: _273  and  _275
REMARK  109  A    between atoms: _275  and  _276
REMARK  110  A    between atoms: _275  and  _278
REMARK  111  A    between atoms: _278  and  _279
REMARK  112  A    between atoms: _284  and  _285
REMARK  113  A    between atoms: _287  and  _289
REMARK  114  A    between atoms: _289  and  _290
REMARK  115  A    between atoms: _289  and  _292
REMARK  116  A    between atoms: _292  and  _293
REMARK  117  A    between atoms: _295  and  _297
REMARK  118  A    between atoms: _297  and  _298
REMARK  119  A    between atoms: _297  and  _300
REMARK  120  A    between atoms: _300  and  _301
REMARK  121  A    between atoms: _304  and  _306
REMARK  122  A    between atoms: _306  and  _307
REMARK  123  A    between atoms: _306  and  _309
REMARK  124  A    between atoms: _309  and  _310
REMARK  125  A    between atoms: _310  and  _311
REMARK  126  A    between atoms: _311  and  _312
REMARK  127  A    between atoms: _321  and  _323
REMARK  128  A    between atoms: _323  and  _324
REMARK  129  A    between atoms: _323  and  _326
REMARK  130  A    between atoms: _326  and  _327
REMARK  131  A    between atoms: _337  and  _339
REMARK  132  A    between atoms: _339  and  _340
REMARK  133  A    between atoms: _339  and  _342
REMARK  134  A    between atoms: _342  and  _343
REMARK                            x       y       z     vdW  Elec       q    Type
REMARK                         _______ _______ _______ _____ _____    ______ ____
ROOT
ATOM      1  CA  ASP A   1      68.925  93.627  15.406  0.00  0.00    +0.144 C 
ENDROOT
BRANCH   1   2
ATOM      2  N   ASP A   1      67.592  94.051  14.992  0.00  0.00    -0.239 NA
ATOM      3  H   ASP A   1      67.504  94.922  14.430  0.00  0.00    +0.142 HD
ENDBRANCH   1   2
BRANCH   1   4
ATOM      4  C   ASP A   1      69.199  92.167  15.065  0.00  0.00    +0.225 C 
ATOM      5  O   ASP A   1      69.715  91.407  15.883  0.00  0.00    -0.287 OA
ENDBRANCH   1   4
BRANCH   1   6
ATOM      6  CB  ASP A   1      69.121  93.876  16.903  0.00  0.00    +0.139 C 
BRANCH   6   7
ATOM      7  CG  ASP A   1      69.521  95.311  17.202  0.00  0.00    +0.367 C 
ATOM      8  OD2 ASP A   1      68.657  96.103  17.630  0.00  0.00    -0.246 OA
ATOM      9  OD1 ASP A   1      70.706  95.646  16.999  0.00  0.00    -0.246 OA
ENDBRANCH   6   7
ENDBRANCH   1   6
TORSDOF 4
REMARK  Name = ../refined-set-2016/4ufh/4ufh_pocket.pdb
REMARK  134 active torsions:
REMARK  status: ('A' for Active; 'I' for Inactive)
REMARK    1  A    between atoms: _1  and  _3
REMARK    2  A    between atoms: _3  and  _4
REMARK    3  A    between atoms: _3  and  _6
REMARK    4  A    between atoms: _9  and  _11
REMARK    5  A    between atoms: _11  and  _12
REMARK    6  A    between atoms: _14  and  _16
REMARK    7  A    between atoms: _16  and  _17
REMARK    8  A    between atoms: _19  and  _21
REMARK    9  A    between atoms: _21  and  _22
REMARK   10  A    between atoms: _24  and  _26
REMARK   11  A    between atoms: _26  and  _27
REMARK   12  A    between atoms: _30  and  _32
REMARK   13  A    between atoms: _32  and  _33
REMARK   14  A    between atoms: _32  and  _35
REMARK   15  A    between atoms: _35  and  _36
REMARK   16  A    between atoms: _39  and  _41
REMARK   17  A    between atoms: _41  and  _42
REMARK   18  A    between atoms: _41  and  _44
REMARK   19  A    between atoms: _44  and  _45
REMARK   20  A    between atoms: _45  and  _46
REMARK   21  A    between atoms: _46  and  _47
REMARK   22  A    between atoms: _47  and  _48
REMARK   23  A    between atoms: _52  and  _54
REMARK   24  A    between atoms: _54  and  _55
REMARK   25  A    between atoms: _54  and  _57
REMARK   26  A    between atoms: _57  and  _58
REMARK   27  A    between atoms: _58  and  _59
REMARK   28  A    between atoms: _62  and  _64
REMARK   29  A    between atoms: _64  and  _65
REMARK   30  A    between atoms: _64  and  _67
REMARK   31  A    between atoms: _67  and  _68
REMARK   32  A    between atoms: _71  and  _73
REMARK   33  A    between atoms: _73  and  _74
REMARK   34  A    between atoms: _73  and  _76
REMARK   35  A    between atoms: _76  and  _77
REMARK   36  A    between atoms: _80  and  _82
REMARK   37  A    between atoms: _82  and  _83
REMARK   38  A    between atoms: _82  and  _85
REMARK   39  A    between atoms: _85  and  _86
REMARK   40  A    between atoms: _89  and  _91
REMARK   41  A    between atoms: _91  and  _92
REMARK   42  A    between atoms: _94  and  _96
REMARK   43  A    between atoms: _96  and  _97
REMARK   44  A    between atoms: _96  and  _99
REMARK   45  A    between atoms: _99  and  _100
REMARK   46  A    between atoms: _103  and  _105
REMARK   47  A    between atoms: _105  and  _106
REMARK   48  A    between atoms: _105  and  _108
REMARK   49  A    between atoms: _108  and  _109
REMARK   50  A    between atoms: _119  and  _121
REMARK   51  A    between atoms: _121  and  _122
REMARK   52  A    between atoms: _121  and  _124
REMARK   53  A    between atoms: _124  and  _125
REMARK   54  A    between atoms: _130  and  _132
REMARK   55  A    between atoms: _132  and  _133
REMARK   56  A    between atoms: _132  and  _135
REMARK   57  A    between atoms: _135  and  _136
REMARK   58  A    between atoms: _136  and  _137
REMARK   59  A    between atoms: _140  and  _142
REMARK   60  A    between atoms: _142  and  _143
REMARK   61  A    between atoms: _142  and  _145
REMARK   62  A    between atoms: _145  and  _146
REMARK   63  A    between atoms: _146  and  _147
REMARK   64  A    between atoms: _147  and  _148
REMARK   65  A    between atoms: _157  and  _159
REMARK   66  A    between atoms: _159  and  _160
REMARK   67  A    between atoms: _159  and  _162
REMARK   68  A    between atoms: _162  and  _163
REMARK   69  A    between atoms: _166  and  _168
REMARK   70  A    between atoms: _168  and  _169
REMARK   71  A    between atoms: _168  and  _171
REMARK   72  A    between atoms: _171  and  _172
REMARK   73  A    between atoms: _177  and  _179
REMARK   74  A    between atoms: _179  and  _180
REMARK   75  A    between atoms: _179  and  _182
REMARK   76  A    between atoms: _182  and  _183
REMARK   77  A    between atoms: _188  and  _189
REMARK   78  A    between atoms: _191  and  _193
REMARK   79  A    between atoms: _193  and  _194
REMARK   80  A    between atoms: _193  and  _196
REMARK   81  A    between atoms: _196  and  _197
REMARK   82  A    between atoms: _197  and  _198
REMARK   83  A    between atoms: _201  and  _203
REMARK   84  A    between atoms: _203  and  _204
REMARK   85  A    between atoms: _203  and  _206
REMARK   86  A    between atoms: _206  and  _207
REMARK   87  A    between atoms: _210  and  _212
REMARK   88  A    between atoms: _212  and  _213
REMARK   89  A    between atoms: _212  and  _215
REMARK   90  A    between atoms: _215  and  _216
REMARK   91  A    between atoms: _222  and  _224
REMARK   92  A    between atoms: _224  and  _225
REMARK   93  A    between atoms: _224  and  _227
REMARK   94  A    between atoms: _227  and  _228
REMARK   95  A    between atoms: _230  and  _232
REMARK   96  A    between atoms: _232  and  _233
REMARK   97  A    between atoms: _232  and  _235
REMARK   98  A    between atoms: _235  and  _236
REMARK   99  A    between atoms: _239  and  _241
REMARK  100  A    between atoms: _241  and  _242
REMARK  101  A    between atoms: _241  and  _244
REMARK  102  A    between atoms: _244  and  _245
REMARK  103  A    between atoms: _255  and  _257
REMARK  104  A    between atoms: _257  and  _258
REMARK  105  A    between atoms: _257  and  _260
REMARK  106  A    between atoms: _260  and  _261
REMARK  107  A    between atoms: _267  and  _268
REMARK  108  A    between atoms: _273  and  _275
REMARK  109  A    between atoms: _275  and  _276
REMARK  110  A    between atoms: _275  and  _278
REMARK  111  A    between atoms: _278  and  _279
REMARK  112  A    between atoms: _284  and  _285
REMARK  113  A    between atoms: _287  and  _289
REMARK  114  A    between atoms: _289  and  _290
REMARK  115  A    between atoms: _289  and  _292
REMARK  116  A    between atoms: _292  and  _293
REMARK  117  A    between atoms: _295  and  _297
REMARK  118  A    between atoms: _297  and  _298
REMARK  119  A    between atoms: _297  and  _300
REMARK  120  A    between atoms: _300  and  _301
REMARK  121  A    between atoms: _304  and  _306
REMARK  122  A    between atoms: _306  and  _307
REMARK  123  A    between atoms: _306  and  _309
REMARK  124  A    between atoms: _309  and  _310
REMARK  125  A    between atoms: _310  and  _311
REMARK  126  A    between atoms: _311  and  _312
REMARK  127  A    between atoms: _321  and  _323
REMARK  128  A    between atoms: _323  and  _324
REMARK  129  A    between atoms: _323  and  _326
REMARK  130  A    between atoms: _326  and  _327
REMARK  131  A    between atoms: _337  and  _339
REMARK  132  A    between atoms: _339  and  _340
REMARK  133  A    between atoms: _339  and  _342
REMARK  134  A    between atoms: _342  and  _343
REMARK                            x       y       z     vdW  Elec       q    Type
REMARK                         _______ _______ _______ _____ _____    ______ ____
ROOT
ATOM      1  C   HIS A   1      74.773  91.887  10.969  0.00  0.00    +0.239 C 
ATOM      2  N   TYR A   2      76.033  92.309  10.921  0.00  0.00    -0.298 N 
ATOM      3  H   TYR A   2      76.312  93.091  11.548  0.00  0.00    +0.150 HD
ATOM      4  O   HIS A   1      74.315  91.013  10.233  0.00  0.00    -0.274 OA
ENDROOT
BRANCH   1   5
ATOM      5  CA  HIS A   1      73.900  92.558  12.021  0.00  0.00    +0.151 C 
BRANCH   5   6
ATOM      6  N   HIS A   1      72.636  93.025  11.469  0.00  0.00    -0.238 NA
ATOM      7  H   HIS A   1      71.910  92.330  11.203  0.00  0.00    +0.142 HD
ENDBRANCH   5   6
BRANCH   5   8
ATOM      8  CB  HIS A   1      73.655  91.588  13.178  0.00  0.00    +0.074 C 
BRANCH   8   9
ATOM      9  CG  HIS A   1      73.157  92.249  14.425  0.00  0.00    +0.082 A 
ATOM     10  ND1 HIS A   1      73.258  91.662  15.668  0.00  0.00    -0.227 NA
ATOM     11  CE1 HIS A   1      72.741  92.469  16.576  0.00  0.00    +0.199 A 
ATOM     12  NE2 HIS A   1      72.307  93.558  15.969  0.00  0.00    -0.221 NA
ATOM     13  CD2 HIS A   1      72.558  93.447  14.622  0.00  0.00    +0.115 A 
ENDBRANCH   8   9
ENDBRANCH   5   8
ENDBRANCH   1   5
BRANCH   2  14
ATOM     14  CA  TYR A   2      77.050  91.737  10.037  0.00  0.00    +0.141 C 
BRANCH  14  15
ATOM     15  C   TYR A   2      76.559  91.557   8.595  0.00  0.00    +0.227 C 
ATOM     16  O   TYR A   2      76.586  90.455   8.058  0.00  0.00    -0.286 OA
ENDBRANCH  14  15
BRANCH  14  17
ATOM     17  CB  TYR A   2      77.538  90.406  10.611  0.00  0.00    +0.054 C 
BRANCH  17  18
ATOM     18  CG  TYR A   2      78.028  90.538  12.037  0.00  0.00    -0.020 A 
ATOM     19  CD2 TYR A   2      77.154  90.387  13.113  0.00  0.00    -0.001 A 
ATOM     20  CE2 TYR A   2      77.593  90.523  14.410  0.00  0.00    +0.036 A 
ATOM     21  CZ  TYR A   2      78.920  90.814  14.655  0.00  0.00    +0.134 A 
ATOM     22  CE1 TYR A   2      79.804  90.969  13.606  0.00  0.00    +0.036 A 
ATOM     23  CD1 TYR A   2      79.358  90.836  12.309  0.00  0.00    -0.001 A 
BRANCH  21  24
ATOM     24  OH  TYR A   2      79.365  90.951  15.948  0.00  0.00    -0.506 OA
ATOM     25  HH  TYR A   2      78.610  90.810  16.572  0.00  0.00    +0.292 HD
ENDBRANCH  21  24
ENDBRANCH  17  18
ENDBRANCH  14  17
ENDBRANCH   2  14
TORSDOF 9
REMARK  Name = ../refined-set-2016/4ufh/4ufh_pocket.pdb
REMARK  134 active torsions:
REMARK  status: ('A' for Active; 'I' for Inactive)
REMARK    1  A    between atoms: _1  and  _3
REMARK    2  A    between atoms: _3  and  _4
REMARK    3  A    between atoms: _3  and  _6
REMARK    4  A    between atoms: _9  and  _11
REMARK    5  A    between atoms: _11  and  _12
REMARK    6  A    between atoms: _14  and  _16
REMARK    7  A    between atoms: _16  and  _17
REMARK    8  A    between atoms: _19  and  _21
REMARK    9  A    between atoms: _21  and  _22
REMARK   10  A    between atoms: _24  and  _26
REMARK   11  A    between atoms: _26  and  _27
REMARK   12  A    between atoms: _30  and  _32
REMARK   13  A    between atoms: _32  and  _33
REMARK   14  A    between atoms: _32  and  _35
REMARK   15  A    between atoms: _35  and  _36
REMARK   16  A    between atoms: _39  and  _41
REMARK   17  A    between atoms: _41  and  _42
REMARK   18  A    between atoms: _41  and  _44
REMARK   19  A    between atoms: _44  and  _45
REMARK   20  A    between atoms: _45  and  _46
REMARK   21  A    between atoms: _46  and  _47
REMARK   22  A    between atoms: _47  and  _48
REMARK   23  A    between atoms: _52  and  _54
REMARK   24  A    between atoms: _54  and  _55
REMARK   25  A    between atoms: _54  and  _57
REMARK   26  A    between atoms: _57  and  _58
REMARK   27  A    between atoms: _58  and  _59
REMARK   28  A    between atoms: _62  and  _64
REMARK   29  A    between atoms: _64  and  _65
REMARK   30  A    between atoms: _64  and  _67
REMARK   31  A    between atoms: _67  and  _68
REMARK   32  A    between atoms: _71  and  _73
REMARK   33  A    between atoms: _73  and  _74
REMARK   34  A    between atoms: _73  and  _76
REMARK   35  A    between atoms: _76  and  _77
REMARK   36  A    between atoms: _80  and  _82
REMARK   37  A    between atoms: _82  and  _83
REMARK   38  A    between atoms: _82  and  _85
REMARK   39  A    between atoms: _85  and  _86
REMARK   40  A    between atoms: _89  and  _91
REMARK   41  A    between atoms: _91  and  _92
REMARK   42  A    between atoms: _94  and  _96
REMARK   43  A    between atoms: _96  and  _97
REMARK   44  A    between atoms: _96  and  _99
REMARK   45  A    between atoms: _99  and  _100
REMARK   46  A    between atoms: _103  and  _105
REMARK   47  A    between atoms: _105  and  _106
REMARK   48  A    between atoms: _105  and  _108
REMARK   49  A    between atoms: _108  and  _109
REMARK   50  A    between atoms: _119  and  _121
REMARK   51  A    between atoms: _121  and  _122
REMARK   52  A    between atoms: _121  and  _124
REMARK   53  A    between atoms: _124  and  _125
REMARK   54  A    between atoms: _130  and  _132
REMARK   55  A    between atoms: _132  and  _133
REMARK   56  A    between atoms: _132  and  _135
REMARK   57  A    between atoms: _135  and  _136
REMARK   58  A    between atoms: _136  and  _137
REMARK   59  A    between atoms: _140  and  _142
REMARK   60  A    between atoms: _142  and  _143
REMARK   61  A    between atoms: _142  and  _145
REMARK   62  A    between atoms: _145  and  _146
REMARK   63  A    between atoms: _146  and  _147
REMARK   64  A    between atoms: _147  and  _148
REMARK   65  A    between atoms: _157  and  _159
REMARK   66  A    between atoms: _159  and  _160
REMARK   67  A    between atoms: _159  and  _162
REMARK   68  A    between atoms: _162  and  _163
REMARK   69  A    between atoms: _166  and  _168
REMARK   70  A    between atoms: _168  and  _169
REMARK   71  A    between atoms: _168  and  _171
REMARK   72  A    between atoms: _171  and  _172
REMARK   73  A    between atoms: _177  and  _179
REMARK   74  A    between atoms: _179  and  _180
REMARK   75  A    between atoms: _179  and  _182
REMARK   76  A    between atoms: _182  and  _183
REMARK   77  A    between atoms: _188  and  _189
REMARK   78  A    between atoms: _191  and  _193
REMARK   79  A    between atoms: _193  and  _194
REMARK   80  A    between atoms: _193  and  _196
REMARK   81  A    between atoms: _196  and  _197
REMARK   82  A    between atoms: _197  and  _198
REMARK   83  A    between atoms: _201  and  _203
REMARK   84  A    between atoms: _203  and  _204
REMARK   85  A    between atoms: _203  and  _206
REMARK   86  A    between atoms: _206  and  _207
REMARK   87  A    between atoms: _210  and  _212
REMARK   88  A    between atoms: _212  and  _213
REMARK   89  A    between atoms: _212  and  _215
REMARK   90  A    between atoms: _215  and  _216
REMARK   91  A    between atoms: _222  and  _224
REMARK   92  A    between atoms: _224  and  _225
REMARK   93  A    between atoms: _224  and  _227
REMARK   94  A    between atoms: _227  and  _228
REMARK   95  A    between atoms: _230  and  _232
REMARK   96  A    between atoms: _232  and  _233
REMARK   97  A    between atoms: _232  and  _235
REMARK   98  A    between atoms: _235  and  _236
REMARK   99  A    between atoms: _239  and  _241
REMARK  100  A    between atoms: _241  and  _242
REMARK  101  A    between atoms: _241  and  _244
REMARK  102  A    between atoms: _244  and  _245
REMARK  103  A    between atoms: _255  and  _257
REMARK  104  A    between atoms: _257  and  _258
REMARK  105  A    between atoms: _257  and  _260
REMARK  106  A    between atoms: _260  and  _261
REMARK  107  A    between atoms: _267  and  _268
REMARK  108  A    between atoms: _273  and  _275
REMARK  109  A    between atoms: _275  and  _276
REMARK  110  A    between atoms: _275  and  _278
REMARK  111  A    between atoms: _278  and  _279
REMARK  112  A    between atoms: _284  and  _285
REMARK  113  A    between atoms: _287  and  _289
REMARK  114  A    between atoms: _289  and  _290
REMARK  115  A    between atoms: _289  and  _292
REMARK  116  A    between atoms: _292  and  _293
REMARK  117  A    between atoms: _295  and  _297
REMARK  118  A    between atoms: _297  and  _298
REMARK  119  A    between atoms: _297  and  _300
REMARK  120  A    between atoms: _300  and  _301
REMARK  121  A    between atoms: _304  and  _306
REMARK  122  A    between atoms: _306  and  _307
REMARK  123  A    between atoms: _306  and  _309
REMARK  124  A    between atoms: _309  and  _310
REMARK  125  A    between atoms: _310  and  _311
REMARK  126  A    between atoms: _311  and  _312
REMARK  127  A    between atoms: _321  and  _323
REMARK  128  A    between atoms: _323  and  _324
REMARK  129  A    between atoms: _323  and  _326
REMARK  130  A    between atoms: _326  and  _327
REMARK  131  A    between atoms: _337  and  _339
REMARK  132  A    between atoms: _339  and  _340
REMARK  133  A    between atoms: _339  and  _342
REMARK  134  A    between atoms: _342  and  _343
REMARK                            x       y       z     vdW  Elec       q    Type
REMARK                         _______ _______ _______ _____ _____    ______ ____
ROOT
ATOM      1  CA  PHE A   3      83.354  93.778  13.437  0.00  0.00    +0.153 C 
ENDROOT
BRANCH   1   2
ATOM      2  C   PHE A   3      83.537  92.390  14.060  0.00  0.00    +0.241 C 
ATOM      3  N   SER A   4      83.568  92.325  15.391  0.00  0.00    -0.295 N 
ATOM      4  H   SER A   4      83.470  93.207  15.934  0.00  0.00    +0.150 HD
ATOM      5  O   PHE A   3      83.660  91.400  13.338  0.00  0.00    -0.273 OA
BRANCH   3   6
ATOM      6  CA  SER A   4      83.734  91.066  16.123  0.00  0.00    +0.178 C 
BRANCH   6   7
ATOM      7  C   SER A   4      84.982  90.291  15.698  0.00  0.00    +0.243 C 
ATOM      8  O   SER A   4      84.989  89.062  15.689  0.00  0.00    -0.273 OA
ATOM      9  N   THR A   5      86.037  91.021  15.357  0.00  0.00    -0.296 N 
ATOM     10  H   THR A   5      85.971  92.058  15.407  0.00  0.00    +0.150 HD
BRANCH   9  11
ATOM     11  CA  THR A   5      87.286  90.411  14.914  0.00  0.00    +0.164 C 
BRANCH  11  12
ATOM     12  C   THR A   5      88.423  90.808  15.859  0.00  0.00    +0.229 C 
ATOM     13  O   THR A   5      88.400  91.893  16.438  0.00  0.00    -0.286 OA
ENDBRANCH  11  12
BRANCH  11  14
ATOM     14  CB  THR A   5      87.621  90.825  13.459  0.00  0.00    +0.136 C 
ATOM     15  CG2 THR A   5      88.783  90.017  12.910  0.00  0.00    +0.034 C 
BRANCH  14  16
ATOM     16  OG1 THR A   5      86.474  90.615  12.626  0.00  0.00    -0.382 OA
ATOM     17  HG1 THR A   5      85.720  91.163  12.960  0.00  0.00    +0.210 HD
ENDBRANCH  14  16
ENDBRANCH  11  14
ENDBRANCH   9  11
ENDBRANCH   6   7
BRANCH   6  18
ATOM     18  CB  SER A   4      82.492  90.187  15.958  0.00  0.00    +0.166 C 
BRANCH  18  19
ATOM     19  OG  SER A   4      82.645  88.950  16.630  0.00  0.00    -0.380 OA
ATOM     20  H   SER A   4      83.425  88.468  16.257  0.00  0.00    +0.211 HD
ENDBRANCH  18  19
ENDBRANCH   6  18
ENDBRANCH   3   6
ENDBRANCH   1   2
BRANCH   1  23
ATOM     21  C   ASP A   2      80.936  94.114  13.794  0.00  0.00    +0.241 C 
ATOM     22  O   ASP A   2      81.009  93.957  15.013  0.00  0.00    -0.273 OA
ATOM     23  N   PHE A   3      81.980  94.005  12.975  0.00  0.00    -0.297 N 
ATOM     24  H   PHE A   3      81.812  94.085  11.952  0.00  0.00    +0.150 HD
BRANCH  21  25
ATOM     25  CA  ASP A   2      79.598  94.444  13.138  0.00  0.00    +0.160 C 
BRANCH  25  27
ATOM     26  C   GLU A   1      77.336  94.626  14.026  0.00  0.00    +0.238 C 
ATOM     27  N   ASP A   2      78.633  94.889  14.135  0.00  0.00    -0.297 N 
ATOM     28  H   ASP A   2      78.970  95.429  14.957  0.00  0.00    +0.150 HD
ATOM     29  O   GLU A   1      76.863  93.953  13.113  0.00  0.00    -0.274 OA
BRANCH  26  30
ATOM     30  CA  GLU A   1      76.439  95.214  15.110  0.00  0.00    +0.145 C 
BRANCH  30  31
ATOM     31  N   GLU A   1      75.365  95.991  14.502  0.00  0.00    -0.238 NA
ATOM     32  H   GLU A   1      75.086  95.793  13.520  0.00  0.00    +0.142 HD
ENDBRANCH  30  31
BRANCH  30  33
ATOM     33  CB  GLU A   1      75.890  94.101  16.011  0.00  0.00    +0.038 C 
BRANCH  33  34
ATOM     34  CG  GLU A   1      76.912  93.606  17.036  0.00  0.00    +0.116 C 
BRANCH  34  35
ATOM     35  CD  GLU A   1      76.473  92.357  17.779  0.00  0.00    +0.365 C 
ATOM     36  OE2 GLU A   1      75.434  92.397  18.471  0.00  0.00    -0.246 OA
ATOM     37  OE1 GLU A   1      77.174  91.332  17.670  0.00  0.00    -0.246 OA
ENDBRANCH  34  35
ENDBRANCH  33  34
ENDBRANCH  30  33
ENDBRANCH  26  30
ENDBRANCH  25  27
BRANCH  25  38
ATOM     38  CB  ASP A   2      79.785  95.519  12.064  0.00  0.00    +0.143 C 
BRANCH  38  39
ATOM     39  CG  ASP A   2      79.786  94.950  10.656  0.00  0.00    +0.367 C 
ATOM     40  OD2 ASP A   2      80.211  93.790  10.474  0.00  0.00    -0.246 OA
ATOM     41  OD1 ASP A   2      79.361  95.669   9.728  0.00  0.00    -0.246 OA
ENDBRANCH  38  39
ENDBRANCH  25  38
ENDBRANCH  21  25
ENDBRANCH   1  23
BRANCH   1  42
ATOM     42  CB  PHE A   3      83.771  94.877  14.425  0.00  0.00    +0.055 C 
BRANCH  42  43
ATOM     43  CG  PHE A   3      85.223  94.839  14.805  0.00  0.00    -0.020 A 
ATOM     44  CD2 PHE A   3      85.604  94.757  16.134  0.00  0.00    -0.004 A 
ATOM     45  CE2 PHE A   3      86.940  94.728  16.485  0.00  0.00    -0.000 A 
ATOM     46  CZ  PHE A   3      87.910  94.790  15.504  0.00  0.00    -0.000 A 
ATOM     47  CE1 PHE A   3      87.543  94.876  14.181  0.00  0.00    -0.000 A 
ATOM     48  CD1 PHE A   3      86.208  94.906  13.835  0.00  0.00    -0.004 A 
ENDBRANCH  42  43
ENDBRANCH   1  42
TORSDOF 21
REMARK  Name = ../refined-set-2016/4ufh/4ufh_pocket.pdb
REMARK  134 active torsions:
REMARK  status: ('A' for Active; 'I' for Inactive)
REMARK    1  A    between atoms: _1  and  _3
REMARK    2  A    between atoms: _3  and  _4
REMARK    3  A    between atoms: _3  and  _6
REMARK    4  A    between atoms: _9  and  _11
REMARK    5  A    between atoms: _11  and  _12
REMARK    6  A    between atoms: _14  and  _16
REMARK    7  A    between atoms: _16  and  _17
REMARK    8  A    between atoms: _19  and  _21
REMARK    9  A    between atoms: _21  and  _22
REMARK   10  A    between atoms: _24  and  _26
REMARK   11  A    between atoms: _26  and  _27
REMARK   12  A    between atoms: _30  and  _32
REMARK   13  A    between atoms: _32  and  _33
REMARK   14  A    between atoms: _32  and  _35
REMARK   15  A    between atoms: _35  and  _36
REMARK   16  A    between atoms: _39  and  _41
REMARK   17  A    between atoms: _41  and  _42
REMARK   18  A    between atoms: _41  and  _44
REMARK   19  A    between atoms: _44  and  _45
REMARK   20  A    between atoms: _45  and  _46
REMARK   21  A    between atoms: _46  and  _47
REMARK   22  A    between atoms: _47  and  _48
REMARK   23  A    between atoms: _52  and  _54
REMARK   24  A    between atoms: _54  and  _55
REMARK   25  A    between atoms: _54  and  _57
REMARK   26  A    between atoms: _57  and  _58
REMARK   27  A    between atoms: _58  and  _59
REMARK   28  A    between atoms: _62  and  _64
REMARK   29  A    between atoms: _64  and  _65
REMARK   30  A    between atoms: _64  and  _67
REMARK   31  A    between atoms: _67  and  _68
REMARK   32  A    between atoms: _71  and  _73
REMARK   33  A    between atoms: _73  and  _74
REMARK   34  A    between atoms: _73  and  _76
REMARK   35  A    between atoms: _76  and  _77
REMARK   36  A    between atoms: _80  and  _82
REMARK   37  A    between atoms: _82  and  _83
REMARK   38  A    between atoms: _82  and  _85
REMARK   39  A    between atoms: _85  and  _86
REMARK   40  A    between atoms: _89  and  _91
REMARK   41  A    between atoms: _91  and  _92
REMARK   42  A    between atoms: _94  and  _96
REMARK   43  A    between atoms: _96  and  _97
REMARK   44  A    between atoms: _96  and  _99
REMARK   45  A    between atoms: _99  and  _100
REMARK   46  A    between atoms: _103  and  _105
REMARK   47  A    between atoms: _105  and  _106
REMARK   48  A    between atoms: _105  and  _108
REMARK   49  A    between atoms: _108  and  _109
REMARK   50  A    between atoms: _119  and  _121
REMARK   51  A    between atoms: _121  and  _122
REMARK   52  A    between atoms: _121  and  _124
REMARK   53  A    between atoms: _124  and  _125
REMARK   54  A    between atoms: _130  and  _132
REMARK   55  A    between atoms: _132  and  _133
REMARK   56  A    between atoms: _132  and  _135
REMARK   57  A    between atoms: _135  and  _136
REMARK   58  A    between atoms: _136  and  _137
REMARK   59  A    between atoms: _140  and  _142
REMARK   60  A    between atoms: _142  and  _143
REMARK   61  A    between atoms: _142  and  _145
REMARK   62  A    between atoms: _145  and  _146
REMARK   63  A    between atoms: _146  and  _147
REMARK   64  A    between atoms: _147  and  _148
REMARK   65  A    between atoms: _157  and  _159
REMARK   66  A    between atoms: _159  and  _160
REMARK   67  A    between atoms: _159  and  _162
REMARK   68  A    between atoms: _162  and  _163
REMARK   69  A    between atoms: _166  and  _168
REMARK   70  A    between atoms: _168  and  _169
REMARK   71  A    between atoms: _168  and  _171
REMARK   72  A    between atoms: _171  and  _172
REMARK   73  A    between atoms: _177  and  _179
REMARK   74  A    between atoms: _179  and  _180
REMARK   75  A    between atoms: _179  and  _182
REMARK   76  A    between atoms: _182  and  _183
REMARK   77  A    between atoms: _188  and  _189
REMARK   78  A    between atoms: _191  and  _193
REMARK   79  A    between atoms: _193  and  _194
REMARK   80  A    between atoms: _193  and  _196
REMARK   81  A    between atoms: _196  and  _197
REMARK   82  A    between atoms: _197  and  _198
REMARK   83  A    between atoms: _201  and  _203
REMARK   84  A    between atoms: _203  and  _204
REMARK   85  A    between atoms: _203  and  _206
REMARK   86  A    between atoms: _206  and  _207
REMARK   87  A    between atoms: _210  and  _212
REMARK   88  A    between atoms: _212  and  _213
REMARK   89  A    between atoms: _212  and  _215
REMARK   90  A    between atoms: _215  and  _216
REMARK   91  A    between atoms: _222  and  _224
REMARK   92  A    between atoms: _224  and  _225
REMARK   93  A    between atoms: _224  and  _227
REMARK   94  A    between atoms: _227  and  _228
REMARK   95  A    between atoms: _230  and  _232
REMARK   96  A    between atoms: _232  and  _233
REMARK   97  A    between atoms: _232  and  _235
REMARK   98  A    between atoms: _235  and  _236
REMARK   99  A    between atoms: _239  and  _241
REMARK  100  A    between atoms: _241  and  _242
REMARK  101  A    between atoms: _241  and  _244
REMARK  102  A    between atoms: _244  and  _245
REMARK  103  A    between atoms: _255  and  _257
REMARK  104  A    between atoms: _257  and  _258
REMARK  105  A    between atoms: _257  and  _260
REMARK  106  A    between atoms: _260  and  _261
REMARK  107  A    between atoms: _267  and  _268
REMARK  108  A    between atoms: _273  and  _275
REMARK  109  A    between atoms: _275  and  _276
REMARK  110  A    between atoms: _275  and  _278
REMARK  111  A    between atoms: _278  and  _279
REMARK  112  A    between atoms: _284  and  _285
REMARK  113  A    between atoms: _287  and  _289
REMARK  114  A    between atoms: _289  and  _290
REMARK  115  A    between atoms: _289  and  _292
REMARK  116  A    between atoms: _292  and  _293
REMARK  117  A    between atoms: _295  and  _297
REMARK  118  A    between atoms: _297  and  _298
REMARK  119  A    between atoms: _297  and  _300
REMARK  120  A    between atoms: _300  and  _301
REMARK  121  A    between atoms: _304  and  _306
REMARK  122  A    between atoms: _306  and  _307
REMARK  123  A    between atoms: _306  and  _309
REMARK  124  A    between atoms: _309  and  _310
REMARK  125  A    between atoms: _310  and  _311
REMARK  126  A    between atoms: _311  and  _312
REMARK  127  A    between atoms: _321  and  _323
REMARK  128  A    between atoms: _323  and  _324
REMARK  129  A    between atoms: _323  and  _326
REMARK  130  A    between atoms: _326  and  _327
REMARK  131  A    between atoms: _337  and  _339
REMARK  132  A    between atoms: _339  and  _340
REMARK  133  A    between atoms: _339  and  _342
REMARK  134  A    between atoms: _342  and  _343
REMARK                            x       y       z     vdW  Elec       q    Type
REMARK                         _______ _______ _______ _____ _____    ______ ____
ROOT
ATOM      1  CA  TRP A   1      81.143  94.495  18.935  0.00  0.00    +0.149 C 
ENDROOT
BRANCH   1   2
ATOM      2  C   TRP A   1      82.557  93.933  19.035  0.00  0.00    +0.239 C 
ATOM      3  N   ASN A   2      83.264  94.223  20.124  0.00  0.00    -0.298 N 
ATOM      4  H   ASN A   2      84.240  93.870  20.189  0.00  0.00    +0.150 HD
ATOM      5  O   TRP A   1      83.010  93.256  18.122  0.00  0.00    -0.274 OA
BRANCH   3   6
ATOM      6  CA  ASN A   2      82.737  95.011  21.228  0.00  0.00    +0.146 C 
BRANCH   6   7
ATOM      7  C   ASN A   2      83.564  96.265  21.496  0.00  0.00    +0.227 C 
ATOM      8  O   ASN A   2      84.561  96.520  20.823  0.00  0.00    -0.286 OA
ENDBRANCH   6   7
BRANCH   6   9
ATOM      9  CB  ASN A   2      82.671  94.156  22.493  0.00  0.00    +0.112 C 
BRANCH   9  10
ATOM     10  CG  ASN A   2      83.947  93.378  22.731  0.00  0.00    +0.222 C 
ATOM     11  OD1 ASN A   2      84.939  93.922  23.214  0.00  0.00    -0.275 OA
ATOM     12  ND2 ASN A   2      83.930  92.096  22.392  0.00  0.00    -0.329 N 
ATOM     13 HD21 ASN A   2      84.778  91.510  22.532  0.00  0.00    +0.145 HD
ATOM     14 HD22 ASN A   2      83.069  91.677  21.987  0.00  0.00    +0.145 HD
ENDBRANCH   9  10
ENDBRANCH   6   9
ENDBRANCH   3   6
ENDBRANCH   1   2
BRANCH   1  15
ATOM     15  N   TRP A   1      81.096  95.349  17.760  0.00  0.00    -0.238 NA
ATOM     16  H   TRP A   1      81.129  94.913  16.816  0.00  0.00    +0.142 HD
ENDBRANCH   1  15
BRANCH   1  17
ATOM     17  CB  TRP A   1      80.108  93.368  18.848  0.00  0.00    +0.054 C 
BRANCH  17  18
ATOM     18  CG  TRP A   1      80.057  92.504  20.075  0.00  0.00    -0.002 A 
ATOM     19  CD1 TRP A   1      79.240  92.666  21.157  0.00  0.00    +0.068 A 
ATOM     20  NE1 TRP A   1      79.486  91.684  22.085  0.00  0.00    -0.352 N 
ATOM     21  HE1 TRP A   1      78.999  91.580  22.998  0.00  0.00    +0.166 HD
ATOM     22  CE2 TRP A   1      80.477  90.864  21.614  0.00  0.00    +0.056 A 
ATOM     23  CZ2 TRP A   1      81.064  89.741  22.191  0.00  0.00    +0.017 A 
ATOM     24  CH2 TRP A   1      82.047  89.108  21.483  0.00  0.00    +0.001 A 
ATOM     25  CZ3 TRP A   1      82.452  89.568  20.224  0.00  0.00    +0.000 A 
ATOM     26  CE3 TRP A   1      81.869  90.683  19.648  0.00  0.00    +0.001 A 
ATOM     27  CD2 TRP A   1      80.861  91.350  20.348  0.00  0.00    +0.013 A 
ENDBRANCH  17  18
ENDBRANCH   1  17
TORSDOF 8
REMARK  Name = ../refined-set-2016/4ufh/4ufh_pocket.pdb
REMARK  134 active torsions:
REMARK  status: ('A' for Active; 'I' for Inactive)
REMARK    1  A    between atoms: _1  and  _3
REMARK    2  A    between atoms: _3  and  _4
REMARK    3  A    between atoms: _3  and  _6
REMARK    4  A    between atoms: _9  and  _11
REMARK    5  A    between atoms: _11  and  _12
REMARK    6  A    between atoms: _14  and  _16
REMARK    7  A    between atoms: _16  and  _17
REMARK    8  A    between atoms: _19  and  _21
REMARK    9  A    between atoms: _21  and  _22
REMARK   10  A    between atoms: _24  and  _26
REMARK   11  A    between atoms: _26  and  _27
REMARK   12  A    between atoms: _30  and  _32
REMARK   13  A    between atoms: _32  and  _33
REMARK   14  A    between atoms: _32  and  _35
REMARK   15  A    between atoms: _35  and  _36
REMARK   16  A    between atoms: _39  and  _41
REMARK   17  A    between atoms: _41  and  _42
REMARK   18  A    between atoms: _41  and  _44
REMARK   19  A    between atoms: _44  and  _45
REMARK   20  A    between atoms: _45  and  _46
REMARK   21  A    between atoms: _46  and  _47
REMARK   22  A    between atoms: _47  and  _48
REMARK   23  A    between atoms: _52  and  _54
REMARK   24  A    between atoms: _54  and  _55
REMARK   25  A    between atoms: _54  and  _57
REMARK   26  A    between atoms: _57  and  _58
REMARK   27  A    between atoms: _58  and  _59
REMARK   28  A    between atoms: _62  and  _64
REMARK   29  A    between atoms: _64  and  _65
REMARK   30  A    between atoms: _64  and  _67
REMARK   31  A    between atoms: _67  and  _68
REMARK   32  A    between atoms: _71  and  _73
REMARK   33  A    between atoms: _73  and  _74
REMARK   34  A    between atoms: _73  and  _76
REMARK   35  A    between atoms: _76  and  _77
REMARK   36  A    between atoms: _80  and  _82
REMARK   37  A    between atoms: _82  and  _83
REMARK   38  A    between atoms: _82  and  _85
REMARK   39  A    between atoms: _85  and  _86
REMARK   40  A    between atoms: _89  and  _91
REMARK   41  A    between atoms: _91  and  _92
REMARK   42  A    between atoms: _94  and  _96
REMARK   43  A    between atoms: _96  and  _97
REMARK   44  A    between atoms: _96  and  _99
REMARK   45  A    between atoms: _99  and  _100
REMARK   46  A    between atoms: _103  and  _105
REMARK   47  A    between atoms: _105  and  _106
REMARK   48  A    between atoms: _105  and  _108
REMARK   49  A    between atoms: _108  and  _109
REMARK   50  A    between atoms: _119  and  _121
REMARK   51  A    between atoms: _121  and  _122
REMARK   52  A    between atoms: _121  and  _124
REMARK   53  A    between atoms: _124  and  _125
REMARK   54  A    between atoms: _130  and  _132
REMARK   55  A    between atoms: _132  and  _133
REMARK   56  A    between atoms: _132  and  _135
REMARK   57  A    between atoms: _135  and  _136
REMARK   58  A    between atoms: _136  and  _137
REMARK   59  A    between atoms: _140  and  _142
REMARK   60  A    between atoms: _142  and  _143
REMARK   61  A    between atoms: _142  and  _145
REMARK   62  A    between atoms: _145  and  _146
REMARK   63  A    between atoms: _146  and  _147
REMARK   64  A    between atoms: _147  and  _148
REMARK   65  A    between atoms: _157  and  _159
REMARK   66  A    between atoms: _159  and  _160
REMARK   67  A    between atoms: _159  and  _162
REMARK   68  A    between atoms: _162  and  _163
REMARK   69  A    between atoms: _166  and  _168
REMARK   70  A    between atoms: _168  and  _169
REMARK   71  A    between atoms: _168  and  _171
REMARK   72  A    between atoms: _171  and  _172
REMARK   73  A    between atoms: _177  and  _179
REMARK   74  A    between atoms: _179  and  _180
REMARK   75  A    between atoms: _179  and  _182
REMARK   76  A    between atoms: _182  and  _183
REMARK   77  A    between atoms: _188  and  _189
REMARK   78  A    between atoms: _191  and  _193
REMARK   79  A    between atoms: _193  and  _194
REMARK   80  A    between atoms: _193  and  _196
REMARK   81  A    between atoms: _196  and  _197
REMARK   82  A    between atoms: _197  and  _198
REMARK   83  A    between atoms: _201  and  _203
REMARK   84  A    between atoms: _203  and  _204
REMARK   85  A    between atoms: _203  and  _206
REMARK   86  A    between atoms: _206  and  _207
REMARK   87  A    between atoms: _210  and  _212
REMARK   88  A    between atoms: _212  and  _213
REMARK   89  A    between atoms: _212  and  _215
REMARK   90  A    between atoms: _215  and  _216
REMARK   91  A    between atoms: _222  and  _224
REMARK   92  A    between atoms: _224  and  _225
REMARK   93  A    between atoms: _224  and  _227
REMARK   94  A    between atoms: _227  and  _228
REMARK   95  A    between atoms: _230  and  _232
REMARK   96  A    between atoms: _232  and  _233
REMARK   97  A    between atoms: _232  and  _235
REMARK   98  A    between atoms: _235  and  _236
REMARK   99  A    between atoms: _239  and  _241
REMARK  100  A    between atoms: _241  and  _242
REMARK  101  A    between atoms: _241  and  _244
REMARK  102  A    between atoms: _244  and  _245
REMARK  103  A    between atoms: _255  and  _257
REMARK  104  A    between atoms: _257  and  _258
REMARK  105  A    between atoms: _257  and  _260
REMARK  106  A    between atoms: _260  and  _261
REMARK  107  A    between atoms: _267  and  _268
REMARK  108  A    between atoms: _273  and  _275
REMARK  109  A    between atoms: _275  and  _276
REMARK  110  A    between atoms: _275  and  _278
REMARK  111  A    between atoms: _278  and  _279
REMARK  112  A    between atoms: _284  and  _285
REMARK  113  A    between atoms: _287  and  _289
REMARK  114  A    between atoms: _289  and  _290
REMARK  115  A    between atoms: _289  and  _292
REMARK  116  A    between atoms: _292  and  _293
REMARK  117  A    between atoms: _295  and  _297
REMARK  118  A    between atoms: _297  and  _298
REMARK  119  A    between atoms: _297  and  _300
REMARK  120  A    between atoms: _300  and  _301
REMARK  121  A    between atoms: _304  and  _306
REMARK  122  A    between atoms: _306  and  _307
REMARK  123  A    between atoms: _306  and  _309
REMARK  124  A    between atoms: _309  and  _310
REMARK  125  A    between atoms: _310  and  _311
REMARK  126  A    between atoms: _311  and  _312
REMARK  127  A    between atoms: _321  and  _323
REMARK  128  A    between atoms: _323  and  _324
REMARK  129  A    between atoms: _323  and  _326
REMARK  130  A    between atoms: _326  and  _327
REMARK  131  A    between atoms: _337  and  _339
REMARK  132  A    between atoms: _339  and  _340
REMARK  133  A    between atoms: _339  and  _342
REMARK  134  A    between atoms: _342  and  _343
REMARK                            x       y       z     vdW  Elec       q    Type
REMARK                         _______ _______ _______ _____ _____    ______ ____
ROOT
ATOM      1  CA  TYR A   2      85.875  85.745  20.703  0.00  0.00    +0.141 C 
ENDROOT
BRANCH   1   4
ATOM      2  C   PRO A   1      84.990  84.456  22.592  0.00  0.00    +0.239 C 
ATOM      3  O   PRO A   1      84.668  85.459  23.220  0.00  0.00    -0.274 OA
ATOM      4  N   TYR A   2      85.565  84.493  21.393  0.00  0.00    -0.298 N 
ATOM      5  H   TYR A   2      85.804  83.595  20.927  0.00  0.00    +0.150 HD
BRANCH   2  10
ATOM      6  N   PRO A   1      85.050  82.979  24.621  0.00  0.00    -0.210 NA
ATOM      7  CD  PRO A   1      83.951  82.341  25.369  0.00  0.00    +0.089 C 
ATOM      8  CG  PRO A   1      83.066  81.797  24.282  0.00  0.00    +0.021 C 
ATOM      9  CB  PRO A   1      83.262  82.707  23.123  0.00  0.00    +0.028 C 
ATOM     10  CA  PRO A   1      84.748  83.069  23.185  0.00  0.00    +0.149 C 
ENDBRANCH   2  10
ENDBRANCH   1   4
BRANCH   1  11
ATOM     11  C   TYR A   2      86.801  86.648  21.513  0.00  0.00    +0.227 C 
ATOM     12  O   TYR A   2      86.601  87.861  21.560  0.00  0.00    -0.286 OA
ENDBRANCH   1  11
BRANCH   1  13
ATOM     13  CB  TYR A   2      84.594  86.513  20.368  0.00  0.00    +0.054 C 
BRANCH  13  14
ATOM     14  CG  TYR A   2      83.609  85.758  19.509  0.00  0.00    -0.020 A 
ATOM     15  CD2 TYR A   2      82.562  85.046  20.081  0.00  0.00    -0.001 A 
ATOM     16  CE2 TYR A   2      81.652  84.362  19.295  0.00  0.00    +0.036 A 
ATOM     17  CZ  TYR A   2      81.782  84.391  17.922  0.00  0.00    +0.134 A 
ATOM     18  CE1 TYR A   2      82.810  85.094  17.333  0.00  0.00    +0.036 A 
ATOM     19  CD1 TYR A   2      83.713  85.774  18.124  0.00  0.00    -0.001 A 
BRANCH  17  20
ATOM     20  OH  TYR A   2      80.885  83.717  17.128  0.00  0.00    -0.506 OA
ATOM     21  HH  TYR A   2      81.127  83.845  16.177  0.00  0.00    +0.292 HD
ENDBRANCH  17  20
ENDBRANCH  13  14
ENDBRANCH   1  13
TORSDOF 6
REMARK  Name = ../refined-set-2016/4ufh/4ufh_pocket.pdb
REMARK  134 active torsions:
REMARK  status: ('A' for Active; 'I' for Inactive)
REMARK    1  A    between atoms: _1  and  _3
REMARK    2  A    between atoms: _3  and  _4
REMARK    3  A    between atoms: _3  and  _6
REMARK    4  A    between atoms: _9  and  _11
REMARK    5  A    between atoms: _11  and  _12
REMARK    6  A    between atoms: _14  and  _16
REMARK    7  A    between atoms: _16  and  _17
REMARK    8  A    between atoms: _19  and  _21
REMARK    9  A    between atoms: _21  and  _22
REMARK   10  A    between atoms: _24  and  _26
REMARK   11  A    between atoms: _26  and  _27
REMARK   12  A    between atoms: _30  and  _32
REMARK   13  A    between atoms: _32  and  _33
REMARK   14  A    between atoms: _32  and  _35
REMARK   15  A    between atoms: _35  and  _36
REMARK   16  A    between atoms: _39  and  _41
REMARK   17  A    between atoms: _41  and  _42
REMARK   18  A    between atoms: _41  and  _44
REMARK   19  A    between atoms: _44  and  _45
REMARK   20  A    between atoms: _45  and  _46
REMARK   21  A    between atoms: _46  and  _47
REMARK   22  A    between atoms: _47  and  _48
REMARK   23  A    between atoms: _52  and  _54
REMARK   24  A    between atoms: _54  and  _55
REMARK   25  A    between atoms: _54  and  _57
REMARK   26  A    between atoms: _57  and  _58
REMARK   27  A    between atoms: _58  and  _59
REMARK   28  A    between atoms: _62  and  _64
REMARK   29  A    between atoms: _64  and  _65
REMARK   30  A    between atoms: _64  and  _67
REMARK   31  A    between atoms: _67  and  _68
REMARK   32  A    between atoms: _71  and  _73
REMARK   33  A    between atoms: _73  and  _74
REMARK   34  A    between atoms: _73  and  _76
REMARK   35  A    between atoms: _76  and  _77
REMARK   36  A    between atoms: _80  and  _82
REMARK   37  A    between atoms: _82  and  _83
REMARK   38  A    between atoms: _82  and  _85
REMARK   39  A    between atoms: _85  and  _86
REMARK   40  A    between atoms: _89  and  _91
REMARK   41  A    between atoms: _91  and  _92
REMARK   42  A    between atoms: _94  and  _96
REMARK   43  A    between atoms: _96  and  _97
REMARK   44  A    between atoms: _96  and  _99
REMARK   45  A    between atoms: _99  and  _100
REMARK   46  A    between atoms: _103  and  _105
REMARK   47  A    between atoms: _105  and  _106
REMARK   48  A    between atoms: _105  and  _108
REMARK   49  A    between atoms: _108  and  _109
REMARK   50  A    between atoms: _119  and  _121
REMARK   51  A    between atoms: _121  and  _122
REMARK   52  A    between atoms: _121  and  _124
REMARK   53  A    between atoms: _124  and  _125
REMARK   54  A    between atoms: _130  and  _132
REMARK   55  A    between atoms: _132  and  _133
REMARK   56  A    between atoms: _132  and  _135
REMARK   57  A    between atoms: _135  and  _136
REMARK   58  A    between atoms: _136  and  _137
REMARK   59  A    between atoms: _140  and  _142
REMARK   60  A    between atoms: _142  and  _143
REMARK   61  A    between atoms: _142  and  _145
REMARK   62  A    between atoms: _145  and  _146
REMARK   63  A    between atoms: _146  and  _147
REMARK   64  A    between atoms: _147  and  _148
REMARK   65  A    between atoms: _157  and  _159
REMARK   66  A    between atoms: _159  and  _160
REMARK   67  A    between atoms: _159  and  _162
REMARK   68  A    between atoms: _162  and  _163
REMARK   69  A    between atoms: _166  and  _168
REMARK   70  A    between atoms: _168  and  _169
REMARK   71  A    between atoms: _168  and  _171
REMARK   72  A    between atoms: _171  and  _172
REMARK   73  A    between atoms: _177  and  _179
REMARK   74  A    between atoms: _179  and  _180
REMARK   75  A    between atoms: _179  and  _182
REMARK   76  A    between atoms: _182  and  _183
REMARK   77  A    between atoms: _188  and  _189
REMARK   78  A    between atoms: _191  and  _193
REMARK   79  A    between atoms: _193  and  _194
REMARK   80  A    between atoms: _193  and  _196
REMARK   81  A    between atoms: _196  and  _197
REMARK   82  A    between atoms: _197  and  _198
REMARK   83  A    between atoms: _201  and  _203
REMARK   84  A    between atoms: _203  and  _204
REMARK   85  A    between atoms: _203  and  _206
REMARK   86  A    between atoms: _206  and  _207
REMARK   87  A    between atoms: _210  and  _212
REMARK   88  A    between atoms: _212  and  _213
REMARK   89  A    between atoms: _212  and  _215
REMARK   90  A    between atoms: _215  and  _216
REMARK   91  A    between atoms: _222  and  _224
REMARK   92  A    between atoms: _224  and  _225
REMARK   93  A    between atoms: _224  and  _227
REMARK   94  A    between atoms: _227  and  _228
REMARK   95  A    between atoms: _230  and  _232
REMARK   96  A    between atoms: _232  and  _233
REMARK   97  A    between atoms: _232  and  _235
REMARK   98  A    between atoms: _235  and  _236
REMARK   99  A    between atoms: _239  and  _241
REMARK  100  A    between atoms: _241  and  _242
REMARK  101  A    between atoms: _241  and  _244
REMARK  102  A    between atoms: _244  and  _245
REMARK  103  A    between atoms: _255  and  _257
REMARK  104  A    between atoms: _257  and  _258
REMARK  105  A    between atoms: _257  and  _260
REMARK  106  A    between atoms: _260  and  _261
REMARK  107  A    between atoms: _267  and  _268
REMARK  108  A    between atoms: _273  and  _275
REMARK  109  A    between atoms: _275  and  _276
REMARK  110  A    between atoms: _275  and  _278
REMARK  111  A    between atoms: _278  and  _279
REMARK  112  A    between atoms: _284  and  _285
REMARK  113  A    between atoms: _287  and  _289
REMARK  114  A    between atoms: _289  and  _290
REMARK  115  A    between atoms: _289  and  _292
REMARK  116  A    between atoms: _292  and  _293
REMARK  117  A    between atoms: _295  and  _297
REMARK  118  A    between atoms: _297  and  _298
REMARK  119  A    between atoms: _297  and  _300
REMARK  120  A    between atoms: _300  and  _301
REMARK  121  A    between atoms: _304  and  _306
REMARK  122  A    between atoms: _306  and  _307
REMARK  123  A    between atoms: _306  and  _309
REMARK  124  A    between atoms: _309  and  _310
REMARK  125  A    between atoms: _310  and  _311
REMARK  126  A    between atoms: _311  and  _312
REMARK  127  A    between atoms: _321  and  _323
REMARK  128  A    between atoms: _323  and  _324
REMARK  129  A    between atoms: _323  and  _326
REMARK  130  A    between atoms: _326  and  _327
REMARK  131  A    between atoms: _337  and  _339
REMARK  132  A    between atoms: _339  and  _340
REMARK  133  A    between atoms: _339  and  _342
REMARK  134  A    between atoms: _342  and  _343
REMARK                            x       y       z     vdW  Elec       q    Type
REMARK                         _______ _______ _______ _____ _____    ______ ____
ROOT
ATOM      1  CA  SER A   1      87.587  91.238  19.808  0.00  0.00    +0.163 C 
ENDROOT
BRANCH   1   2
ATOM      2  N   SER A   1      88.355  90.706  20.928  0.00  0.00    -0.237 NA
ATOM      3  H   SER A   1      87.854  90.299  21.744  0.00  0.00    +0.142 HD
ENDBRANCH   1   2
BRANCH   1   4
ATOM      4  CB  SER A   1      86.939  92.575  20.150  0.00  0.00    +0.227 C 
ATOM      5  OG  SER A   1      85.771  92.807  19.846  0.00  0.00    -0.287 OA
ENDBRANCH   1   4
BRANCH   1   6
ATOM      6  C   SER A   1      86.524  90.236  19.367  0.00  0.00    +0.162 C 
BRANCH   6   7
ATOM      7  O   SER A   1      87.124  89.060  18.853  0.00  0.00    -0.380 OA
ATOM      8  H   SER A   1      87.685  88.643  19.554  0.00  0.00    +0.211 HD
ENDBRANCH   6   7
ENDBRANCH   1   6
TORSDOF 4
REMARK  Name = ../refined-set-2016/4ufh/4ufh_pocket.pdb
REMARK  134 active torsions:
REMARK  status: ('A' for Active; 'I' for Inactive)
REMARK    1  A    between atoms: _1  and  _3
REMARK    2  A    between atoms: _3  and  _4
REMARK    3  A    between atoms: _3  and  _6
REMARK    4  A    between atoms: _9  and  _11
REMARK    5  A    between atoms: _11  and  _12
REMARK    6  A    between atoms: _14  and  _16
REMARK    7  A    between atoms: _16  and  _17
REMARK    8  A    between atoms: _19  and  _21
REMARK    9  A    between atoms: _21  and  _22
REMARK   10  A    between atoms: _24  and  _26
REMARK   11  A    between atoms: _26  and  _27
REMARK   12  A    between atoms: _30  and  _32
REMARK   13  A    between atoms: _32  and  _33
REMARK   14  A    between atoms: _32  and  _35
REMARK   15  A    between atoms: _35  and  _36
REMARK   16  A    between atoms: _39  and  _41
REMARK   17  A    between atoms: _41  and  _42
REMARK   18  A    between atoms: _41  and  _44
REMARK   19  A    between atoms: _44  and  _45
REMARK   20  A    between atoms: _45  and  _46
REMARK   21  A    between atoms: _46  and  _47
REMARK   22  A    between atoms: _47  and  _48
REMARK   23  A    between atoms: _52  and  _54
REMARK   24  A    between atoms: _54  and  _55
REMARK   25  A    between atoms: _54  and  _57
REMARK   26  A    between atoms: _57  and  _58
REMARK   27  A    between atoms: _58  and  _59
REMARK   28  A    between atoms: _62  and  _64
REMARK   29  A    between atoms: _64  and  _65
REMARK   30  A    between atoms: _64  and  _67
REMARK   31  A    between atoms: _67  and  _68
REMARK   32  A    between atoms: _71  and  _73
REMARK   33  A    between atoms: _73  and  _74
REMARK   34  A    between atoms: _73  and  _76
REMARK   35  A    between atoms: _76  and  _77
REMARK   36  A    between atoms: _80  and  _82
REMARK   37  A    between atoms: _82  and  _83
REMARK   38  A    between atoms: _82  and  _85
REMARK   39  A    between atoms: _85  and  _86
REMARK   40  A    between atoms: _89  and  _91
REMARK   41  A    between atoms: _91  and  _92
REMARK   42  A    between atoms: _94  and  _96
REMARK   43  A    between atoms: _96  and  _97
REMARK   44  A    between atoms: _96  and  _99
REMARK   45  A    between atoms: _99  and  _100
REMARK   46  A    between atoms: _103  and  _105
REMARK   47  A    between atoms: _105  and  _106
REMARK   48  A    between atoms: _105  and  _108
REMARK   49  A    between atoms: _108  and  _109
REMARK   50  A    between atoms: _119  and  _121
REMARK   51  A    between atoms: _121  and  _122
REMARK   52  A    between atoms: _121  and  _124
REMARK   53  A    between atoms: _124  and  _125
REMARK   54  A    between atoms: _130  and  _132
REMARK   55  A    between atoms: _132  and  _133
REMARK   56  A    between atoms: _132  and  _135
REMARK   57  A    between atoms: _135  and  _136
REMARK   58  A    between atoms: _136  and  _137
REMARK   59  A    between atoms: _140  and  _142
REMARK   60  A    between atoms: _142  and  _143
REMARK   61  A    between atoms: _142  and  _145
REMARK   62  A    between atoms: _145  and  _146
REMARK   63  A    between atoms: _146  and  _147
REMARK   64  A    between atoms: _147  and  _148
REMARK   65  A    between atoms: _157  and  _159
REMARK   66  A    between atoms: _159  and  _160
REMARK   67  A    between atoms: _159  and  _162
REMARK   68  A    between atoms: _162  and  _163
REMARK   69  A    between atoms: _166  and  _168
REMARK   70  A    between atoms: _168  and  _169
REMARK   71  A    between atoms: _168  and  _171
REMARK   72  A    between atoms: _171  and  _172
REMARK   73  A    between atoms: _177  and  _179
REMARK   74  A    between atoms: _179  and  _180
REMARK   75  A    between atoms: _179  and  _182
REMARK   76  A    between atoms: _182  and  _183
REMARK   77  A    between atoms: _188  and  _189
REMARK   78  A    between atoms: _191  and  _193
REMARK   79  A    between atoms: _193  and  _194
REMARK   80  A    between atoms: _193  and  _196
REMARK   81  A    between atoms: _196  and  _197
REMARK   82  A    between atoms: _197  and  _198
REMARK   83  A    between atoms: _201  and  _203
REMARK   84  A    between atoms: _203  and  _204
REMARK   85  A    between atoms: _203  and  _206
REMARK   86  A    between atoms: _206  and  _207
REMARK   87  A    between atoms: _210  and  _212
REMARK   88  A    between atoms: _212  and  _213
REMARK   89  A    between atoms: _212  and  _215
REMARK   90  A    between atoms: _215  and  _216
REMARK   91  A    between atoms: _222  and  _224
REMARK   92  A    between atoms: _224  and  _225
REMARK   93  A    between atoms: _224  and  _227
REMARK   94  A    between atoms: _227  and  _228
REMARK   95  A    between atoms: _230  and  _232
REMARK   96  A    between atoms: _232  and  _233
REMARK   97  A    between atoms: _232  and  _235
REMARK   98  A    between atoms: _235  and  _236
REMARK   99  A    between atoms: _239  and  _241
REMARK  100  A    between atoms: _241  and  _242
REMARK  101  A    between atoms: _241  and  _244
REMARK  102  A    between atoms: _244  and  _245
REMARK  103  A    between atoms: _255  and  _257
REMARK  104  A    between atoms: _257  and  _258
REMARK  105  A    between atoms: _257  and  _260
REMARK  106  A    between atoms: _260  and  _261
REMARK  107  A    between atoms: _267  and  _268
REMARK  108  A    between atoms: _273  and  _275
REMARK  109  A    between atoms: _275  and  _276
REMARK  110  A    between atoms: _275  and  _278
REMARK  111  A    between atoms: _278  and  _279
REMARK  112  A    between atoms: _284  and  _285
REMARK  113  A    between atoms: _287  and  _289
REMARK  114  A    between atoms: _289  and  _290
REMARK  115  A    between atoms: _289  and  _292
REMARK  116  A    between atoms: _292  and  _293
REMARK  117  A    between atoms: _295  and  _297
REMARK  118  A    between atoms: _297  and  _298
REMARK  119  A    between atoms: _297  and  _300
REMARK  120  A    between atoms: _300  and  _301
REMARK  121  A    between atoms: _304  and  _306
REMARK  122  A    between atoms: _306  and  _307
REMARK  123  A    between atoms: _306  and  _309
REMARK  124  A    between atoms: _309  and  _310
REMARK  125  A    between atoms: _310  and  _311
REMARK  126  A    between atoms: _311  and  _312
REMARK  127  A    between atoms: _321  and  _323
REMARK  128  A    between atoms: _323  and  _324
REMARK  129  A    between atoms: _323  and  _326
REMARK  130  A    between atoms: _326  and  _327
REMARK  131  A    between atoms: _337  and  _339
REMARK  132  A    between atoms: _339  and  _340
REMARK  133  A    between atoms: _339  and  _342
REMARK  134  A    between atoms: _342  and  _343
REMARK                            x       y       z     vdW  Elec       q    Type
REMARK                         _______ _______ _______ _____ _____    ______ ____
ROOT
ATOM      1  CA  ARG A   2      81.519  87.481   9.248  0.00  0.00    +0.137 C 
ENDROOT
BRANCH   1   3
ATOM      2  C   ILE A   1      83.634  86.503   9.914  0.00  0.00    +0.238 C 
ATOM      3  N   ARG A   2      82.902  87.587   9.688  0.00  0.00    -0.298 N 
ATOM      4  H   ARG A   2      83.324  88.527   9.828  0.00  0.00    +0.150 HD
ATOM      5  O   ILE A   1      83.249  85.368   9.640  0.00  0.00    -0.274 OA
BRANCH   2   6
ATOM      6  CA  ILE A   1      85.010  86.733  10.524  0.00  0.00    +0.145 C 
BRANCH   6   7
ATOM      7  N   ILE A   1      85.449  88.106  10.307  0.00  0.00    -0.238 NA
ATOM      8  H   ILE A   1      85.369  88.804  11.074  0.00  0.00    +0.142 HD
ENDBRANCH   6   7
BRANCH   6   9
ATOM      9  CB  ILE A   1      84.963  86.368  12.021  0.00  0.00    +0.025 C 
ATOM     10  CG2 ILE A   1      86.332  86.544  12.653  0.00  0.00    +0.002 C 
BRANCH   9  11
ATOM     11  CG1 ILE A   1      83.915  87.209  12.750  0.00  0.00    +0.002 C 
ATOM     12  CD1 ILE A   1      83.465  86.610  14.059  0.00  0.00    +0.000 C 
ENDBRANCH   9  11
ENDBRANCH   6   9
ENDBRANCH   2   6
ENDBRANCH   1   3
BRANCH   1  13
ATOM     13  C   ARG A   2      81.087  88.712   8.456  0.00  0.00    +0.227 C 
ATOM     14  O   ARG A   2      80.769  89.747   9.036  0.00  0.00    -0.286 OA
ENDBRANCH   1  13
BRANCH   1  15
ATOM     15  CB  ARG A   2      80.605  87.282  10.457  0.00  0.00    +0.031 C 
BRANCH  15  16
ATOM     16  CG  ARG A   2      79.230  86.747  10.129  0.00  0.00    +0.045 C 
BRANCH  16  17
ATOM     17  CD  ARG A   2      78.373  86.660  11.381  0.00  0.00    +0.174 C 
BRANCH  17  18
ATOM     18  NE  ARG A   2      78.946  85.789  12.403  0.00  0.00    -0.265 N 
ATOM     19  CZ  ARG A   2      79.387  86.208  13.585  0.00  0.00    +0.342 C 
ATOM     20  NH2 ARG A   2      79.888  85.341  14.451  0.00  0.00    -0.292 N 
ATOM     21 HH21 ARG A   2      80.233  85.670  15.376  0.00  0.00    +0.255 HD
ATOM     22 HH22 ARG A   2      79.937  84.331  14.207  0.00  0.00    +0.255 HD
ATOM     23  NH1 ARG A   2      79.321  87.492  13.908  0.00  0.00    -0.292 N 
ATOM     24 HH11 ARG A   2      79.668  87.814  14.834  0.00  0.00    +0.255 HD
ATOM     25 HH12 ARG A   2      78.923  88.178  13.235  0.00  0.00    +0.255 HD
ATOM     26  HE  ARG A   2      79.014  84.773  12.192  0.00  0.00    +0.259 HD
ENDBRANCH  17  18
ENDBRANCH  16  17
ENDBRANCH  15  16
ENDBRANCH   1  15
TORSDOF 10
REMARK  Name = ../refined-set-2016/4ufh/4ufh_pocket.pdb
REMARK  134 active torsions:
REMARK  status: ('A' for Active; 'I' for Inactive)
REMARK    1  A    between atoms: _1  and  _3
REMARK    2  A    between atoms: _3  and  _4
REMARK    3  A    between atoms: _3  and  _6
REMARK    4  A    between atoms: _9  and  _11
REMARK    5  A    between atoms: _11  and  _12
REMARK    6  A    between atoms: _14  and  _16
REMARK    7  A    between atoms: _16  and  _17
REMARK    8  A    between atoms: _19  and  _21
REMARK    9  A    between atoms: _21  and  _22
REMARK   10  A    between atoms: _24  and  _26
REMARK   11  A    between atoms: _26  and  _27
REMARK   12  A    between atoms: _30  and  _32
REMARK   13  A    between atoms: _32  and  _33
REMARK   14  A    between atoms: _32  and  _35
REMARK   15  A    between atoms: _35  and  _36
REMARK   16  A    between atoms: _39  and  _41
REMARK   17  A    between atoms: _41  and  _42
REMARK   18  A    between atoms: _41  and  _44
REMARK   19  A    between atoms: _44  and  _45
REMARK   20  A    between atoms: _45  and  _46
REMARK   21  A    between atoms: _46  and  _47
REMARK   22  A    between atoms: _47  and  _48
REMARK   23  A    between atoms: _52  and  _54
REMARK   24  A    between atoms: _54  and  _55
REMARK   25  A    between atoms: _54  and  _57
REMARK   26  A    between atoms: _57  and  _58
REMARK   27  A    between atoms: _58  and  _59
REMARK   28  A    between atoms: _62  and  _64
REMARK   29  A    between atoms: _64  and  _65
REMARK   30  A    between atoms: _64  and  _67
REMARK   31  A    between atoms: _67  and  _68
REMARK   32  A    between atoms: _71  and  _73
REMARK   33  A    between atoms: _73  and  _74
REMARK   34  A    between atoms: _73  and  _76
REMARK   35  A    between atoms: _76  and  _77
REMARK   36  A    between atoms: _80  and  _82
REMARK   37  A    between atoms: _82  and  _83
REMARK   38  A    between atoms: _82  and  _85
REMARK   39  A    between atoms: _85  and  _86
REMARK   40  A    between atoms: _89  and  _91
REMARK   41  A    between atoms: _91  and  _92
REMARK   42  A    between atoms: _94  and  _96
REMARK   43  A    between atoms: _96  and  _97
REMARK   44  A    between atoms: _96  and  _99
REMARK   45  A    between atoms: _99  and  _100
REMARK   46  A    between atoms: _103  and  _105
REMARK   47  A    between atoms: _105  and  _106
REMARK   48  A    between atoms: _105  and  _108
REMARK   49  A    between atoms: _108  and  _109
REMARK   50  A    between atoms: _119  and  _121
REMARK   51  A    between atoms: _121  and  _122
REMARK   52  A    between atoms: _121  and  _124
REMARK   53  A    between atoms: _124  and  _125
REMARK   54  A    between atoms: _130  and  _132
REMARK   55  A    between atoms: _132  and  _133
REMARK   56  A    between atoms: _132  and  _135
REMARK   57  A    between atoms: _135  and  _136
REMARK   58  A    between atoms: _136  and  _137
REMARK   59  A    between atoms: _140  and  _142
REMARK   60  A    between atoms: _142  and  _143
REMARK   61  A    between atoms: _142  and  _145
REMARK   62  A    between atoms: _145  and  _146
REMARK   63  A    between atoms: _146  and  _147
REMARK   64  A    between atoms: _147  and  _148
REMARK   65  A    between atoms: _157  and  _159
REMARK   66  A    between atoms: _159  and  _160
REMARK   67  A    between atoms: _159  and  _162
REMARK   68  A    between atoms: _162  and  _163
REMARK   69  A    between atoms: _166  and  _168
REMARK   70  A    between atoms: _168  and  _169
REMARK   71  A    between atoms: _168  and  _171
REMARK   72  A    between atoms: _171  and  _172
REMARK   73  A    between atoms: _177  and  _179
REMARK   74  A    between atoms: _179  and  _180
REMARK   75  A    between atoms: _179  and  _182
REMARK   76  A    between atoms: _182  and  _183
REMARK   77  A    between atoms: _188  and  _189
REMARK   78  A    between atoms: _191  and  _193
REMARK   79  A    between atoms: _193  and  _194
REMARK   80  A    between atoms: _193  and  _196
REMARK   81  A    between atoms: _196  and  _197
REMARK   82  A    between atoms: _197  and  _198
REMARK   83  A    between atoms: _201  and  _203
REMARK   84  A    between atoms: _203  and  _204
REMARK   85  A    between atoms: _203  and  _206
REMARK   86  A    between atoms: _206  and  _207
REMARK   87  A    between atoms: _210  and  _212
REMARK   88  A    between atoms: _212  and  _213
REMARK   89  A    between atoms: _212  and  _215
REMARK   90  A    between atoms: _215  and  _216
REMARK   91  A    between atoms: _222  and  _224
REMARK   92  A    between atoms: _224  and  _225
REMARK   93  A    between atoms: _224  and  _227
REMARK   94  A    between atoms: _227  and  _228
REMARK   95  A    between atoms: _230  and  _232
REMARK   96  A    between atoms: _232  and  _233
REMARK   97  A    between atoms: _232  and  _235
REMARK   98  A    between atoms: _235  and  _236
REMARK   99  A    between atoms: _239  and  _241
REMARK  100  A    between atoms: _241  and  _242
REMARK  101  A    between atoms: _241  and  _244
REMARK  102  A    between atoms: _244  and  _245
REMARK  103  A    between atoms: _255  and  _257
REMARK  104  A    between atoms: _257  and  _258
REMARK  105  A    between atoms: _257  and  _260
REMARK  106  A    between atoms: _260  and  _261
REMARK  107  A    between atoms: _267  and  _268
REMARK  108  A    between atoms: _273  and  _275
REMARK  109  A    between atoms: _275  and  _276
REMARK  110  A    between atoms: _275  and  _278
REMARK  111  A    between atoms: _278  and  _279
REMARK  112  A    between atoms: _284  and  _285
REMARK  113  A    between atoms: _287  and  _289
REMARK  114  A    between atoms: _289  and  _290
REMARK  115  A    between atoms: _289  and  _292
REMARK  116  A    between atoms: _292  and  _293
REMARK  117  A    between atoms: _295  and  _297
REMARK  118  A    between atoms: _297  and  _298
REMARK  119  A    between atoms: _297  and  _300
REMARK  120  A    between atoms: _300  and  _301
REMARK  121  A    between atoms: _304  and  _306
REMARK  122  A    between atoms: _306  and  _307
REMARK  123  A    between atoms: _306  and  _309
REMARK  124  A    between atoms: _309  and  _310
REMARK  125  A    between atoms: _310  and  _311
REMARK  126  A    between atoms: _311  and  _312
REMARK  127  A    between atoms: _321  and  _323
REMARK  128  A    between atoms: _323  and  _324
REMARK  129  A    between atoms: _323  and  _326
REMARK  130  A    between atoms: _326  and  _327
REMARK  131  A    between atoms: _337  and  _339
REMARK  132  A    between atoms: _339  and  _340
REMARK  133  A    between atoms: _339  and  _342
REMARK  134  A    between atoms: _342  and  _343
REMARK                            x       y       z     vdW  Elec       q    Type
REMARK                         _______ _______ _______ _____ _____    ______ ____
ROOT
ATOM      1  CG  TRP A   1      71.019  85.603  23.418  0.00  0.00    -0.002 A 
ATOM      2  CD2 TRP A   1      72.307  85.449  22.810  0.00  0.00    +0.013 A 
ATOM      3  CE3 TRP A   1      73.496  84.826  23.199  0.00  0.00    +0.001 A 
ATOM      4  CZ3 TRP A   1      74.580  84.867  22.338  0.00  0.00    +0.000 A 
ATOM      5  CH2 TRP A   1      74.497  85.516  21.099  0.00  0.00    +0.001 A 
ATOM      6  CZ2 TRP A   1      73.347  86.135  20.693  0.00  0.00    +0.017 A 
ATOM      7  CE2 TRP A   1      72.256  86.094  21.558  0.00  0.00    +0.056 A 
ATOM      8  NE1 TRP A   1      70.999  86.619  21.418  0.00  0.00    -0.352 N 
ATOM      9  HE1 TRP A   1      70.657  87.157  20.596  0.00  0.00    +0.166 HD
ATOM     10  CD1 TRP A   1      70.265  86.322  22.535  0.00  0.00    +0.068 A 
ENDROOT
BRANCH   1  11
ATOM     11  CB  TRP A   1      70.587  85.092  24.759  0.00  0.00    +0.053 C 
BRANCH  11  12
ATOM     12  CA  TRP A   1      69.859  83.745  24.723  0.00  0.00    +0.137 C 
BRANCH  12  13
ATOM     13  N   TRP A   1      69.384  83.378  26.050  0.00  0.00    -0.239 NA
ATOM     14  H   TRP A   1      69.998  83.572  26.866  0.00  0.00    +0.142 HD
ENDBRANCH  12  13
BRANCH  12  15
ATOM     15  C   TRP A   1      70.783  82.640  24.231  0.00  0.00    +0.224 C 
ATOM     16  O   TRP A   1      70.674  82.171  23.102  0.00  0.00    -0.287 OA
ENDBRANCH  12  15
ENDBRANCH  11  12
ENDBRANCH   1  11
TORSDOF 4
REMARK  Name = ../refined-set-2016/4ufh/4ufh_pocket.pdb
REMARK  134 active torsions:
REMARK  status: ('A' for Active; 'I' for Inactive)
REMARK    1  A    between atoms: _1  and  _3
REMARK    2  A    between atoms: _3  and  _4
REMARK    3  A    between atoms: _3  and  _6
REMARK    4  A    between atoms: _9  and  _11
REMARK    5  A    between atoms: _11  and  _12
REMARK    6  A    between atoms: _14  and  _16
REMARK    7  A    between atoms: _16  and  _17
REMARK    8  A    between atoms: _19  and  _21
REMARK    9  A    between atoms: _21  and  _22
REMARK   10  A    between atoms: _24  and  _26
REMARK   11  A    between atoms: _26  and  _27
REMARK   12  A    between atoms: _30  and  _32
REMARK   13  A    between atoms: _32  and  _33
REMARK   14  A    between atoms: _32  and  _35
REMARK   15  A    between atoms: _35  and  _36
REMARK   16  A    between atoms: _39  and  _41
REMARK   17  A    between atoms: _41  and  _42
REMARK   18  A    between atoms: _41  and  _44
REMARK   19  A    between atoms: _44  and  _45
REMARK   20  A    between atoms: _45  and  _46
REMARK   21  A    between atoms: _46  and  _47
REMARK   22  A    between atoms: _47  and  _48
REMARK   23  A    between atoms: _52  and  _54
REMARK   24  A    between atoms: _54  and  _55
REMARK   25  A    between atoms: _54  and  _57
REMARK   26  A    between atoms: _57  and  _58
REMARK   27  A    between atoms: _58  and  _59
REMARK   28  A    between atoms: _62  and  _64
REMARK   29  A    between atoms: _64  and  _65
REMARK   30  A    between atoms: _64  and  _67
REMARK   31  A    between atoms: _67  and  _68
REMARK   32  A    between atoms: _71  and  _73
REMARK   33  A    between atoms: _73  and  _74
REMARK   34  A    between atoms: _73  and  _76
REMARK   35  A    between atoms: _76  and  _77
REMARK   36  A    between atoms: _80  and  _82
REMARK   37  A    between atoms: _82  and  _83
REMARK   38  A    between atoms: _82  and  _85
REMARK   39  A    between atoms: _85  and  _86
REMARK   40  A    between atoms: _89  and  _91
REMARK   41  A    between atoms: _91  and  _92
REMARK   42  A    between atoms: _94  and  _96
REMARK   43  A    between atoms: _96  and  _97
REMARK   44  A    between atoms: _96  and  _99
REMARK   45  A    between atoms: _99  and  _100
REMARK   46  A    between atoms: _103  and  _105
REMARK   47  A    between atoms: _105  and  _106
REMARK   48  A    between atoms: _105  and  _108
REMARK   49  A    between atoms: _108  and  _109
REMARK   50  A    between atoms: _119  and  _121
REMARK   51  A    between atoms: _121  and  _122
REMARK   52  A    between atoms: _121  and  _124
REMARK   53  A    between atoms: _124  and  _125
REMARK   54  A    between atoms: _130  and  _132
REMARK   55  A    between atoms: _132  and  _133
REMARK   56  A    between atoms: _132  and  _135
REMARK   57  A    between atoms: _135  and  _136
REMARK   58  A    between atoms: _136  and  _137
REMARK   59  A    between atoms: _140  and  _142
REMARK   60  A    between atoms: _142  and  _143
REMARK   61  A    between atoms: _142  and  _145
REMARK   62  A    between atoms: _145  and  _146
REMARK   63  A    between atoms: _146  and  _147
REMARK   64  A    between atoms: _147  and  _148
REMARK   65  A    between atoms: _157  and  _159
REMARK   66  A    between atoms: _159  and  _160
REMARK   67  A    between atoms: _159  and  _162
REMARK   68  A    between atoms: _162  and  _163
REMARK   69  A    between atoms: _166  and  _168
REMARK   70  A    between atoms: _168  and  _169
REMARK   71  A    between atoms: _168  and  _171
REMARK   72  A    between atoms: _171  and  _172
REMARK   73  A    between atoms: _177  and  _179
REMARK   74  A    between atoms: _179  and  _180
REMARK   75  A    between atoms: _179  and  _182
REMARK   76  A    between atoms: _182  and  _183
REMARK   77  A    between atoms: _188  and  _189
REMARK   78  A    between atoms: _191  and  _193
REMARK   79  A    between atoms: _193  and  _194
REMARK   80  A    between atoms: _193  and  _196
REMARK   81  A    between atoms: _196  and  _197
REMARK   82  A    between atoms: _197  and  _198
REMARK   83  A    between atoms: _201  and  _203
REMARK   84  A    between atoms: _203  and  _204
REMARK   85  A    between atoms: _203  and  _206
REMARK   86  A    between atoms: _206  and  _207
REMARK   87  A    between atoms: _210  and  _212
REMARK   88  A    between atoms: _212  and  _213
REMARK   89  A    between atoms: _212  and  _215
REMARK   90  A    between atoms: _215  and  _216
REMARK   91  A    between atoms: _222  and  _224
REMARK   92  A    between atoms: _224  and  _225
REMARK   93  A    between atoms: _224  and  _227
REMARK   94  A    between atoms: _227  and  _228
REMARK   95  A    between atoms: _230  and  _232
REMARK   96  A    between atoms: _232  and  _233
REMARK   97  A    between atoms: _232  and  _235
REMARK   98  A    between atoms: _235  and  _236
REMARK   99  A    between atoms: _239  and  _241
REMARK  100  A    between atoms: _241  and  _242
REMARK  101  A    between atoms: _241  and  _244
REMARK  102  A    between atoms: _244  and  _245
REMARK  103  A    between atoms: _255  and  _257
REMARK  104  A    between atoms: _257  and  _258
REMARK  105  A    between atoms: _257  and  _260
REMARK  106  A    between atoms: _260  and  _261
REMARK  107  A    between atoms: _267  and  _268
REMARK  108  A    between atoms: _273  and  _275
REMARK  109  A    between atoms: _275  and  _276
REMARK  110  A    between atoms: _275  and  _278
REMARK  111  A    between atoms: _278  and  _279
REMARK  112  A    between atoms: _284  and  _285
REMARK  113  A    between atoms: _287  and  _289
REMARK  114  A    between atoms: _289  and  _290
REMARK  115  A    between atoms: _289  and  _292
REMARK  116  A    between atoms: _292  and  _293
REMARK  117  A    between atoms: _295  and  _297
REMARK  118  A    between atoms: _297  and  _298
REMARK  119  A    between atoms: _297  and  _300
REMARK  120  A    between atoms: _300  and  _301
REMARK  121  A    between atoms: _304  and  _306
REMARK  122  A    between atoms: _306  and  _307
REMARK  123  A    between atoms: _306  and  _309
REMARK  124  A    between atoms: _309  and  _310
REMARK  125  A    between atoms: _310  and  _311
REMARK  126  A    between atoms: _311  and  _312
REMARK  127  A    between atoms: _321  and  _323
REMARK  128  A    between atoms: _323  and  _324
REMARK  129  A    between atoms: _323  and  _326
REMARK  130  A    between atoms: _326  and  _327
REMARK  131  A    between atoms: _337  and  _339
REMARK  132  A    between atoms: _339  and  _340
REMARK  133  A    between atoms: _339  and  _342
REMARK  134  A    between atoms: _342  and  _343
REMARK                            x       y       z     vdW  Elec       q    Type
REMARK                         _______ _______ _______ _____ _____    ______ ____
ROOT
ATOM      1  CA  ILE A   1      78.367  80.500  25.163  0.00  0.00    +0.133 C 
ENDROOT
BRANCH   1   2
ATOM      2  N   ILE A   1      79.410  81.278  25.829  0.00  0.00    -0.239 NA
ATOM      3  H   ILE A   1      79.986  81.943  25.275  0.00  0.00    +0.142 HD
ENDBRANCH   1   2
BRANCH   1   4
ATOM      4  C   ILE A   1      78.724  79.013  25.162  0.00  0.00    +0.224 C 
ATOM      5  O   ILE A   1      77.888  78.162  24.878  0.00  0.00    -0.287 OA
ENDBRANCH   1   4
BRANCH   1   6
ATOM      6  CB  ILE A   1      78.121  80.993  23.717  0.00  0.00    +0.023 C 
ATOM      7  CG2 ILE A   1      77.184  82.182  23.712  0.00  0.00    +0.002 C 
BRANCH   6   8
ATOM      8  CG1 ILE A   1      79.430  81.402  23.045  0.00  0.00    +0.002 C 
ATOM      9  CD1 ILE A   1      80.224  80.254  22.505  0.00  0.00    +0.000 C 
ENDBRANCH   6   8
ENDBRANCH   1   6
TORSDOF 4
REMARK  Name = ../refined-set-2016/4ufh/4ufh_pocket.pdb
REMARK  134 active torsions:
REMARK  status: ('A' for Active; 'I' for Inactive)
REMARK    1  A    between atoms: _1  and  _3
REMARK    2  A    between atoms: _3  and  _4
REMARK    3  A    between atoms: _3  and  _6
REMARK    4  A    between atoms: _9  and  _11
REMARK    5  A    between atoms: _11  and  _12
REMARK    6  A    between atoms: _14  and  _16
REMARK    7  A    between atoms: _16  and  _17
REMARK    8  A    between atoms: _19  and  _21
REMARK    9  A    between atoms: _21  and  _22
REMARK   10  A    between atoms: _24  and  _26
REMARK   11  A    between atoms: _26  and  _27
REMARK   12  A    between atoms: _30  and  _32
REMARK   13  A    between atoms: _32  and  _33
REMARK   14  A    between atoms: _32  and  _35
REMARK   15  A    between atoms: _35  and  _36
REMARK   16  A    between atoms: _39  and  _41
REMARK   17  A    between atoms: _41  and  _42
REMARK   18  A    between atoms: _41  and  _44
REMARK   19  A    between atoms: _44  and  _45
REMARK   20  A    between atoms: _45  and  _46
REMARK   21  A    between atoms: _46  and  _47
REMARK   22  A    between atoms: _47  and  _48
REMARK   23  A    between atoms: _52  and  _54
REMARK   24  A    between atoms: _54  and  _55
REMARK   25  A    between atoms: _54  and  _57
REMARK   26  A    between atoms: _57  and  _58
REMARK   27  A    between atoms: _58  and  _59
REMARK   28  A    between atoms: _62  and  _64
REMARK   29  A    between atoms: _64  and  _65
REMARK   30  A    between atoms: _64  and  _67
REMARK   31  A    between atoms: _67  and  _68
REMARK   32  A    between atoms: _71  and  _73
REMARK   33  A    between atoms: _73  and  _74
REMARK   34  A    between atoms: _73  and  _76
REMARK   35  A    between atoms: _76  and  _77
REMARK   36  A    between atoms: _80  and  _82
REMARK   37  A    between atoms: _82  and  _83
REMARK   38  A    between atoms: _82  and  _85
REMARK   39  A    between atoms: _85  and  _86
REMARK   40  A    between atoms: _89  and  _91
REMARK   41  A    between atoms: _91  and  _92
REMARK   42  A    between atoms: _94  and  _96
REMARK   43  A    between atoms: _96  and  _97
REMARK   44  A    between atoms: _96  and  _99
REMARK   45  A    between atoms: _99  and  _100
REMARK   46  A    between atoms: _103  and  _105
REMARK   47  A    between atoms: _105  and  _106
REMARK   48  A    between atoms: _105  and  _108
REMARK   49  A    between atoms: _108  and  _109
REMARK   50  A    between atoms: _119  and  _121
REMARK   51  A    between atoms: _121  and  _122
REMARK   52  A    between atoms: _121  and  _124
REMARK   53  A    between atoms: _124  and  _125
REMARK   54  A    between atoms: _130  and  _132
REMARK   55  A    between atoms: _132  and  _133
REMARK   56  A    between atoms: _132  and  _135
REMARK   57  A    between atoms: _135  and  _136
REMARK   58  A    between atoms: _136  and  _137
REMARK   59  A    between atoms: _140  and  _142
REMARK   60  A    between atoms: _142  and  _143
REMARK   61  A    between atoms: _142  and  _145
REMARK   62  A    between atoms: _145  and  _146
REMARK   63  A    between atoms: _146  and  _147
REMARK   64  A    between atoms: _147  and  _148
REMARK   65  A    between atoms: _157  and  _159
REMARK   66  A    between atoms: _159  and  _160
REMARK   67  A    between atoms: _159  and  _162
REMARK   68  A    between atoms: _162  and  _163
REMARK   69  A    between atoms: _166  and  _168
REMARK   70  A    between atoms: _168  and  _169
REMARK   71  A    between atoms: _168  and  _171
REMARK   72  A    between atoms: _171  and  _172
REMARK   73  A    between atoms: _177  and  _179
REMARK   74  A    between atoms: _179  and  _180
REMARK   75  A    between atoms: _179  and  _182
REMARK   76  A    between atoms: _182  and  _183
REMARK   77  A    between atoms: _188  and  _189
REMARK   78  A    between atoms: _191  and  _193
REMARK   79  A    between atoms: _193  and  _194
REMARK   80  A    between atoms: _193  and  _196
REMARK   81  A    between atoms: _196  and  _197
REMARK   82  A    between atoms: _197  and  _198
REMARK   83  A    between atoms: _201  and  _203
REMARK   84  A    between atoms: _203  and  _204
REMARK   85  A    between atoms: _203  and  _206
REMARK   86  A    between atoms: _206  and  _207
REMARK   87  A    between atoms: _210  and  _212
REMARK   88  A    between atoms: _212  and  _213
REMARK   89  A    between atoms: _212  and  _215
REMARK   90  A    between atoms: _215  and  _216
REMARK   91  A    between atoms: _222  and  _224
REMARK   92  A    between atoms: _224  and  _225
REMARK   93  A    between atoms: _224  and  _227
REMARK   94  A    between atoms: _227  and  _228
REMARK   95  A    between atoms: _230  and  _232
REMARK   96  A    between atoms: _232  and  _233
REMARK   97  A    between atoms: _232  and  _235
REMARK   98  A    between atoms: _235  and  _236
REMARK   99  A    between atoms: _239  and  _241
REMARK  100  A    between atoms: _241  and  _242
REMARK  101  A    between atoms: _241  and  _244
REMARK  102  A    between atoms: _244  and  _245
REMARK  103  A    between atoms: _255  and  _257
REMARK  104  A    between atoms: _257  and  _258
REMARK  105  A    between atoms: _257  and  _260
REMARK  106  A    between atoms: _260  and  _261
REMARK  107  A    between atoms: _267  and  _268
REMARK  108  A    between atoms: _273  and  _275
REMARK  109  A    between atoms: _275  and  _276
REMARK  110  A    between atoms: _275  and  _278
REMARK  111  A    between atoms: _278  and  _279
REMARK  112  A    between atoms: _284  and  _285
REMARK  113  A    between atoms: _287  and  _289
REMARK  114  A    between atoms: _289  and  _290
REMARK  115  A    between atoms: _289  and  _292
REMARK  116  A    between atoms: _292  and  _293
REMARK  117  A    between atoms: _295  and  _297
REMARK  118  A    between atoms: _297  and  _298
REMARK  119  A    between atoms: _297  and  _300
REMARK  120  A    between atoms: _300  and  _301
REMARK  121  A    between atoms: _304  and  _306
REMARK  122  A    between atoms: _306  and  _307
REMARK  123  A    between atoms: _306  and  _309
REMARK  124  A    between atoms: _309  and  _310
REMARK  125  A    between atoms: _310  and  _311
REMARK  126  A    between atoms: _311  and  _312
REMARK  127  A    between atoms: _321  and  _323
REMARK  128  A    between atoms: _323  and  _324
REMARK  129  A    between atoms: _323  and  _326
REMARK  130  A    between atoms: _326  and  _327
REMARK  131  A    between atoms: _337  and  _339
REMARK  132  A    between atoms: _339  and  _340
REMARK  133  A    between atoms: _339  and  _342
REMARK  134  A    between atoms: _342  and  _343
REMARK                            x       y       z     vdW  Elec       q    Type
REMARK                         _______ _______ _______ _____ _____    ______ ____
ROOT
ATOM      1  O   HOH     1      73.745  94.063  19.087  0.00  0.00    +0.000 OA
ENDROOT
TORSDOF 0
REMARK  Name = ../refined-set-2016/4ufh/4ufh_pocket.pdb
REMARK  134 active torsions:
REMARK  status: ('A' for Active; 'I' for Inactive)
REMARK    1  A    between atoms: _1  and  _3
REMARK    2  A    between atoms: _3  and  _4
REMARK    3  A    between atoms: _3  and  _6
REMARK    4  A    between atoms: _9  and  _11
REMARK    5  A    between atoms: _11  and  _12
REMARK    6  A    between atoms: _14  and  _16
REMARK    7  A    between atoms: _16  and  _17
REMARK    8  A    between atoms: _19  and  _21
REMARK    9  A    between atoms: _21  and  _22
REMARK   10  A    between atoms: _24  and  _26
REMARK   11  A    between atoms: _26  and  _27
REMARK   12  A    between atoms: _30  and  _32
REMARK   13  A    between atoms: _32  and  _33
REMARK   14  A    between atoms: _32  and  _35
REMARK   15  A    between atoms: _35  and  _36
REMARK   16  A    between atoms: _39  and  _41
REMARK   17  A    between atoms: _41  and  _42
REMARK   18  A    between atoms: _41  and  _44
REMARK   19  A    between atoms: _44  and  _45
REMARK   20  A    between atoms: _45  and  _46
REMARK   21  A    between atoms: _46  and  _47
REMARK   22  A    between atoms: _47  and  _48
REMARK   23  A    between atoms: _52  and  _54
REMARK   24  A    between atoms: _54  and  _55
REMARK   25  A    between atoms: _54  and  _57
REMARK   26  A    between atoms: _57  and  _58
REMARK   27  A    between atoms: _58  and  _59
REMARK   28  A    between atoms: _62  and  _64
REMARK   29  A    between atoms: _64  and  _65
REMARK   30  A    between atoms: _64  and  _67
REMARK   31  A    between atoms: _67  and  _68
REMARK   32  A    between atoms: _71  and  _73
REMARK   33  A    between atoms: _73  and  _74
REMARK   34  A    between atoms: _73  and  _76
REMARK   35  A    between atoms: _76  and  _77
REMARK   36  A    between atoms: _80  and  _82
REMARK   37  A    between atoms: _82  and  _83
REMARK   38  A    between atoms: _82  and  _85
REMARK   39  A    between atoms: _85  and  _86
REMARK   40  A    between atoms: _89  and  _91
REMARK   41  A    between atoms: _91  and  _92
REMARK   42  A    between atoms: _94  and  _96
REMARK   43  A    between atoms: _96  and  _97
REMARK   44  A    between atoms: _96  and  _99
REMARK   45  A    between atoms: _99  and  _100
REMARK   46  A    between atoms: _103  and  _105
REMARK   47  A    between atoms: _105  and  _106
REMARK   48  A    between atoms: _105  and  _108
REMARK   49  A    between atoms: _108  and  _109
REMARK   50  A    between atoms: _119  and  _121
REMARK   51  A    between atoms: _121  and  _122
REMARK   52  A    between atoms: _121  and  _124
REMARK   53  A    between atoms: _124  and  _125
REMARK   54  A    between atoms: _130  and  _132
REMARK   55  A    between atoms: _132  and  _133
REMARK   56  A    between atoms: _132  and  _135
REMARK   57  A    between atoms: _135  and  _136
REMARK   58  A    between atoms: _136  and  _137
REMARK   59  A    between atoms: _140  and  _142
REMARK   60  A    between atoms: _142  and  _143
REMARK   61  A    between atoms: _142  and  _145
REMARK   62  A    between atoms: _145  and  _146
REMARK   63  A    between atoms: _146  and  _147
REMARK   64  A    between atoms: _147  and  _148
REMARK   65  A    between atoms: _157  and  _159
REMARK   66  A    between atoms: _159  and  _160
REMARK   67  A    between atoms: _159  and  _162
REMARK   68  A    between atoms: _162  and  _163
REMARK   69  A    between atoms: _166  and  _168
REMARK   70  A    between atoms: _168  and  _169
REMARK   71  A    between atoms: _168  and  _171
REMARK   72  A    between atoms: _171  and  _172
REMARK   73  A    between atoms: _177  and  _179
REMARK   74  A    between atoms: _179  and  _180
REMARK   75  A    between atoms: _179  and  _182
REMARK   76  A    between atoms: _182  and  _183
REMARK   77  A    between atoms: _188  and  _189
REMARK   78  A    between atoms: _191  and  _193
REMARK   79  A    between atoms: _193  and  _194
REMARK   80  A    between atoms: _193  and  _196
REMARK   81  A    between atoms: _196  and  _197
REMARK   82  A    between atoms: _197  and  _198
REMARK   83  A    between atoms: _201  and  _203
REMARK   84  A    between atoms: _203  and  _204
REMARK   85  A    between atoms: _203  and  _206
REMARK   86  A    between atoms: _206  and  _207
REMARK   87  A    between atoms: _210  and  _212
REMARK   88  A    between atoms: _212  and  _213
REMARK   89  A    between atoms: _212  and  _215
REMARK   90  A    between atoms: _215  and  _216
REMARK   91  A    between atoms: _222  and  _224
REMARK   92  A    between atoms: _224  and  _225
REMARK   93  A    between atoms: _224  and  _227
REMARK   94  A    between atoms: _227  and  _228
REMARK   95  A    between atoms: _230  and  _232
REMARK   96  A    between atoms: _232  and  _233
REMARK   97  A    between atoms: _232  and  _235
REMARK   98  A    between atoms: _235  and  _236
REMARK   99  A    between atoms: _239  and  _241
REMARK  100  A    between atoms: _241  and  _242
REMARK  101  A    between atoms: _241  and  _244
REMARK  102  A    between atoms: _244  and  _245
REMARK  103  A    between atoms: _255  and  _257
REMARK  104  A    between atoms: _257  and  _258
REMARK  105  A    between atoms: _257  and  _260
REMARK  106  A    between atoms: _260  and  _261
REMARK  107  A    between atoms: _267  and  _268
REMARK  108  A    between atoms: _273  and  _275
REMARK  109  A    between atoms: _275  and  _276
REMARK  110  A    between atoms: _275  and  _278
REMARK  111  A    between atoms: _278  and  _279
REMARK  112  A    between atoms: _284  and  _285
REMARK  113  A    between atoms: _287  and  _289
REMARK  114  A    between atoms: _289  and  _290
REMARK  115  A    between atoms: _289  and  _292
REMARK  116  A    between atoms: _292  and  _293
REMARK  117  A    between atoms: _295  and  _297
REMARK  118  A    between atoms: _297  and  _298
REMARK  119  A    between atoms: _297  and  _300
REMARK  120  A    between atoms: _300  and  _301
REMARK  121  A    between atoms: _304  and  _306
REMARK  122  A    between atoms: _306  and  _307
REMARK  123  A    between atoms: _306  and  _309
REMARK  124  A    between atoms: _309  and  _310
REMARK  125  A    between atoms: _310  and  _311
REMARK  126  A    between atoms: _311  and  _312
REMARK  127  A    between atoms: _321  and  _323
REMARK  128  A    between atoms: _323  and  _324
REMARK  129  A    between atoms: _323  and  _326
REMARK  130  A    between atoms: _326  and  _327
REMARK  131  A    between atoms: _337  and  _339
REMARK  132  A    between atoms: _339  and  _340
REMARK  133  A    between atoms: _339  and  _342
REMARK  134  A    between atoms: _342  and  _343
REMARK                            x       y       z     vdW  Elec       q    Type
REMARK                         _______ _______ _______ _____ _____    ______ ____
ROOT
ATOM      1  O   HOH     1      72.947  84.881  17.633  0.00  0.00    +0.000 OA
ENDROOT
TORSDOF 0
REMARK  Name = ../refined-set-2016/4ufh/4ufh_pocket.pdb
REMARK  134 active torsions:
REMARK  status: ('A' for Active; 'I' for Inactive)
REMARK    1  A    between atoms: _1  and  _3
REMARK    2  A    between atoms: _3  and  _4
REMARK    3  A    between atoms: _3  and  _6
REMARK    4  A    between atoms: _9  and  _11
REMARK    5  A    between atoms: _11  and  _12
REMARK    6  A    between atoms: _14  and  _16
REMARK    7  A    between atoms: _16  and  _17
REMARK    8  A    between atoms: _19  and  _21
REMARK    9  A    between atoms: _21  and  _22
REMARK   10  A    between atoms: _24  and  _26
REMARK   11  A    between atoms: _26  and  _27
REMARK   12  A    between atoms: _30  and  _32
REMARK   13  A    between atoms: _32  and  _33
REMARK   14  A    between atoms: _32  and  _35
REMARK   15  A    between atoms: _35  and  _36
REMARK   16  A    between atoms: _39  and  _41
REMARK   17  A    between atoms: _41  and  _42
REMARK   18  A    between atoms: _41  and  _44
REMARK   19  A    between atoms: _44  and  _45
REMARK   20  A    between atoms: _45  and  _46
REMARK   21  A    between atoms: _46  and  _47
REMARK   22  A    between atoms: _47  and  _48
REMARK   23  A    between atoms: _52  and  _54
REMARK   24  A    between atoms: _54  and  _55
REMARK   25  A    between atoms: _54  and  _57
REMARK   26  A    between atoms: _57  and  _58
REMARK   27  A    between atoms: _58  and  _59
REMARK   28  A    between atoms: _62  and  _64
REMARK   29  A    between atoms: _64  and  _65
REMARK   30  A    between atoms: _64  and  _67
REMARK   31  A    between atoms: _67  and  _68
REMARK   32  A    between atoms: _71  and  _73
REMARK   33  A    between atoms: _73  and  _74
REMARK   34  A    between atoms: _73  and  _76
REMARK   35  A    between atoms: _76  and  _77
REMARK   36  A    between atoms: _80  and  _82
REMARK   37  A    between atoms: _82  and  _83
REMARK   38  A    between atoms: _82  and  _85
REMARK   39  A    between atoms: _85  and  _86
REMARK   40  A    between atoms: _89  and  _91
REMARK   41  A    between atoms: _91  and  _92
REMARK   42  A    between atoms: _94  and  _96
REMARK   43  A    between atoms: _96  and  _97
REMARK   44  A    between atoms: _96  and  _99
REMARK   45  A    between atoms: _99  and  _100
REMARK   46  A    between atoms: _103  and  _105
REMARK   47  A    between atoms: _105  and  _106
REMARK   48  A    between atoms: _105  and  _108
REMARK   49  A    between atoms: _108  and  _109
REMARK   50  A    between atoms: _119  and  _121
REMARK   51  A    between atoms: _121  and  _122
REMARK   52  A    between atoms: _121  and  _124
REMARK   53  A    between atoms: _124  and  _125
REMARK   54  A    between atoms: _130  and  _132
REMARK   55  A    between atoms: _132  and  _133
REMARK   56  A    between atoms: _132  and  _135
REMARK   57  A    between atoms: _135  and  _136
REMARK   58  A    between atoms: _136  and  _137
REMARK   59  A    between atoms: _140  and  _142
REMARK   60  A    between atoms: _142  and  _143
REMARK   61  A    between atoms: _142  and  _145
REMARK   62  A    between atoms: _145  and  _146
REMARK   63  A    between atoms: _146  and  _147
REMARK   64  A    between atoms: _147  and  _148
REMARK   65  A    between atoms: _157  and  _159
REMARK   66  A    between atoms: _159  and  _160
REMARK   67  A    between atoms: _159  and  _162
REMARK   68  A    between atoms: _162  and  _163
REMARK   69  A    between atoms: _166  and  _168
REMARK   70  A    between atoms: _168  and  _169
REMARK   71  A    between atoms: _168  and  _171
REMARK   72  A    between atoms: _171  and  _172
REMARK   73  A    between atoms: _177  and  _179
REMARK   74  A    between atoms: _179  and  _180
REMARK   75  A    between atoms: _179  and  _182
REMARK   76  A    between atoms: _182  and  _183
REMARK   77  A    between atoms: _188  and  _189
REMARK   78  A    between atoms: _191  and  _193
REMARK   79  A    between atoms: _193  and  _194
REMARK   80  A    between atoms: _193  and  _196
REMARK   81  A    between atoms: _196  and  _197
REMARK   82  A    between atoms: _197  and  _198
REMARK   83  A    between atoms: _201  and  _203
REMARK   84  A    between atoms: _203  and  _204
REMARK   85  A    between atoms: _203  and  _206
REMARK   86  A    between atoms: _206  and  _207
REMARK   87  A    between atoms: _210  and  _212
REMARK   88  A    between atoms: _212  and  _213
REMARK   89  A    between atoms: _212  and  _215
REMARK   90  A    between atoms: _215  and  _216
REMARK   91  A    between atoms: _222  and  _224
REMARK   92  A    between atoms: _224  and  _225
REMARK   93  A    between atoms: _224  and  _227
REMARK   94  A    between atoms: _227  and  _228
REMARK   95  A    between atoms: _230  and  _232
REMARK   96  A    between atoms: _232  and  _233
REMARK   97  A    between atoms: _232  and  _235
REMARK   98  A    between atoms: _235  and  _236
REMARK   99  A    between atoms: _239  and  _241
REMARK  100  A    between atoms: _241  and  _242
REMARK  101  A    between atoms: _241  and  _244
REMARK  102  A    between atoms: _244  and  _245
REMARK  103  A    between atoms: _255  and  _257
REMARK  104  A    between atoms: _257  and  _258
REMARK  105  A    between atoms: _257  and  _260
REMARK  106  A    between atoms: _260  and  _261
REMARK  107  A    between atoms: _267  and  _268
REMARK  108  A    between atoms: _273  and  _275
REMARK  109  A    between atoms: _275  and  _276
REMARK  110  A    between atoms: _275  and  _278
REMARK  111  A    between atoms: _278  and  _279
REMARK  112  A    between atoms: _284  and  _285
REMARK  113  A    between atoms: _287  and  _289
REMARK  114  A    between atoms: _289  and  _290
REMARK  115  A    between atoms: _289  and  _292
REMARK  116  A    between atoms: _292  and  _293
REMARK  117  A    between atoms: _295  and  _297
REMARK  118  A    between atoms: _297  and  _298
REMARK  119  A    between atoms: _297  and  _300
REMARK  120  A    between atoms: _300  and  _301
REMARK  121  A    between atoms: _304  and  _306
REMARK  122  A    between atoms: _306  and  _307
REMARK  123  A    between atoms: _306  and  _309
REMARK  124  A    between atoms: _309  and  _310
REMARK  125  A    between atoms: _310  and  _311
REMARK  126  A    between atoms: _311  and  _312
REMARK  127  A    between atoms: _321  and  _323
REMARK  128  A    between atoms: _323  and  _324
REMARK  129  A    between atoms: _323  and  _326
REMARK  130  A    between atoms: _326  and  _327
REMARK  131  A    between atoms: _337  and  _339
REMARK  132  A    between atoms: _339  and  _340
REMARK  133  A    between atoms: _339  and  _342
REMARK  134  A    between atoms: _342  and  _343
REMARK                            x       y       z     vdW  Elec       q    Type
REMARK                         _______ _______ _______ _____ _____    ______ ____
ROOT
ATOM      1  O   HOH     1      83.052  89.863  11.067  0.00  0.00    +0.000 OA
ENDROOT
TORSDOF 0
REMARK  Name = ../refined-set-2016/4ufh/4ufh_pocket.pdb
REMARK  134 active torsions:
REMARK  status: ('A' for Active; 'I' for Inactive)
REMARK    1  A    between atoms: _1  and  _3
REMARK    2  A    between atoms: _3  and  _4
REMARK    3  A    between atoms: _3  and  _6
REMARK    4  A    between atoms: _9  and  _11
REMARK    5  A    between atoms: _11  and  _12
REMARK    6  A    between atoms: _14  and  _16
REMARK    7  A    between atoms: _16  and  _17
REMARK    8  A    between atoms: _19  and  _21
REMARK    9  A    between atoms: _21  and  _22
REMARK   10  A    between atoms: _24  and  _26
REMARK   11  A    between atoms: _26  and  _27
REMARK   12  A    between atoms: _30  and  _32
REMARK   13  A    between atoms: _32  and  _33
REMARK   14  A    between atoms: _32  and  _35
REMARK   15  A    between atoms: _35  and  _36
REMARK   16  A    between atoms: _39  and  _41
REMARK   17  A    between atoms: _41  and  _42
REMARK   18  A    between atoms: _41  and  _44
REMARK   19  A    between atoms: _44  and  _45
REMARK   20  A    between atoms: _45  and  _46
REMARK   21  A    between atoms: _46  and  _47
REMARK   22  A    between atoms: _47  and  _48
REMARK   23  A    between atoms: _52  and  _54
REMARK   24  A    between atoms: _54  and  _55
REMARK   25  A    between atoms: _54  and  _57
REMARK   26  A    between atoms: _57  and  _58
REMARK   27  A    between atoms: _58  and  _59
REMARK   28  A    between atoms: _62  and  _64
REMARK   29  A    between atoms: _64  and  _65
REMARK   30  A    between atoms: _64  and  _67
REMARK   31  A    between atoms: _67  and  _68
REMARK   32  A    between atoms: _71  and  _73
REMARK   33  A    between atoms: _73  and  _74
REMARK   34  A    between atoms: _73  and  _76
REMARK   35  A    between atoms: _76  and  _77
REMARK   36  A    between atoms: _80  and  _82
REMARK   37  A    between atoms: _82  and  _83
REMARK   38  A    between atoms: _82  and  _85
REMARK   39  A    between atoms: _85  and  _86
REMARK   40  A    between atoms: _89  and  _91
REMARK   41  A    between atoms: _91  and  _92
REMARK   42  A    between atoms: _94  and  _96
REMARK   43  A    between atoms: _96  and  _97
REMARK   44  A    between atoms: _96  and  _99
REMARK   45  A    between atoms: _99  and  _100
REMARK   46  A    between atoms: _103  and  _105
REMARK   47  A    between atoms: _105  and  _106
REMARK   48  A    between atoms: _105  and  _108
REMARK   49  A    between atoms: _108  and  _109
REMARK   50  A    between atoms: _119  and  _121
REMARK   51  A    between atoms: _121  and  _122
REMARK   52  A    between atoms: _121  and  _124
REMARK   53  A    between atoms: _124  and  _125
REMARK   54  A    between atoms: _130  and  _132
REMARK   55  A    between atoms: _132  and  _133
REMARK   56  A    between atoms: _132  and  _135
REMARK   57  A    between atoms: _135  and  _136
REMARK   58  A    between atoms: _136  and  _137
REMARK   59  A    between atoms: _140  and  _142
REMARK   60  A    between atoms: _142  and  _143
REMARK   61  A    between atoms: _142  and  _145
REMARK   62  A    between atoms: _145  and  _146
REMARK   63  A    between atoms: _146  and  _147
REMARK   64  A    between atoms: _147  and  _148
REMARK   65  A    between atoms: _157  and  _159
REMARK   66  A    between atoms: _159  and  _160
REMARK   67  A    between atoms: _159  and  _162
REMARK   68  A    between atoms: _162  and  _163
REMARK   69  A    between atoms: _166  and  _168
REMARK   70  A    between atoms: _168  and  _169
REMARK   71  A    between atoms: _168  and  _171
REMARK   72  A    between atoms: _171  and  _172
REMARK   73  A    between atoms: _177  and  _179
REMARK   74  A    between atoms: _179  and  _180
REMARK   75  A    between atoms: _179  and  _182
REMARK   76  A    between atoms: _182  and  _183
REMARK   77  A    between atoms: _188  and  _189
REMARK   78  A    between atoms: _191  and  _193
REMARK   79  A    between atoms: _193  and  _194
REMARK   80  A    between atoms: _193  and  _196
REMARK   81  A    between atoms: _196  and  _197
REMARK   82  A    between atoms: _197  and  _198
REMARK   83  A    between atoms: _201  and  _203
REMARK   84  A    between atoms: _203  and  _204
REMARK   85  A    between atoms: _203  and  _206
REMARK   86  A    between atoms: _206  and  _207
REMARK   87  A    between atoms: _210  and  _212
REMARK   88  A    between atoms: _212  and  _213
REMARK   89  A    between atoms: _212  and  _215
REMARK   90  A    between atoms: _215  and  _216
REMARK   91  A    between atoms: _222  and  _224
REMARK   92  A    between atoms: _224  and  _225
REMARK   93  A    between atoms: _224  and  _227
REMARK   94  A    between atoms: _227  and  _228
REMARK   95  A    between atoms: _230  and  _232
REMARK   96  A    between atoms: _232  and  _233
REMARK   97  A    between atoms: _232  and  _235
REMARK   98  A    between atoms: _235  and  _236
REMARK   99  A    between atoms: _239  and  _241
REMARK  100  A    between atoms: _241  and  _242
REMARK  101  A    between atoms: _241  and  _244
REMARK  102  A    between atoms: _244  and  _245
REMARK  103  A    between atoms: _255  and  _257
REMARK  104  A    between atoms: _257  and  _258
REMARK  105  A    between atoms: _257  and  _260
REMARK  106  A    between atoms: _260  and  _261
REMARK  107  A    between atoms: _267  and  _268
REMARK  108  A    between atoms: _273  and  _275
REMARK  109  A    between atoms: _275  and  _276
REMARK  110  A    between atoms: _275  and  _278
REMARK  111  A    between atoms: _278  and  _279
REMARK  112  A    between atoms: _284  and  _285
REMARK  113  A    between atoms: _287  and  _289
REMARK  114  A    between atoms: _289  and  _290
REMARK  115  A    between atoms: _289  and  _292
REMARK  116  A    between atoms: _292  and  _293
REMARK  117  A    between atoms: _295  and  _297
REMARK  118  A    between atoms: _297  and  _298
REMARK  119  A    between atoms: _297  and  _300
REMARK  120  A    between atoms: _300  and  _301
REMARK  121  A    between atoms: _304  and  _306
REMARK  122  A    between atoms: _306  and  _307
REMARK  123  A    between atoms: _306  and  _309
REMARK  124  A    between atoms: _309  and  _310
REMARK  125  A    between atoms: _310  and  _311
REMARK  126  A    between atoms: _311  and  _312
REMARK  127  A    between atoms: _321  and  _323
REMARK  128  A    between atoms: _323  and  _324
REMARK  129  A    between atoms: _323  and  _326
REMARK  130  A    between atoms: _326  and  _327
REMARK  131  A    between atoms: _337  and  _339
REMARK  132  A    between atoms: _339  and  _340
REMARK  133  A    between atoms: _339  and  _342
REMARK  134  A    between atoms: _342  and  _343
REMARK                            x       y       z     vdW  Elec       q    Type
REMARK                         _______ _______ _______ _____ _____    ______ ____
ROOT
ATOM      1  O   HOH     1      86.618  87.086  16.425  0.00  0.00    +0.000 OA
ENDROOT
TORSDOF 0
