REMARK  Name = ../refined-set-2016/1lan/1lan_pocket.pdb
REMARK  138 active torsions:
REMARK  status: ('A' for Active; 'I' for Inactive)
REMARK    1  A    between atoms: _1  and  _3
REMARK    2  A    between atoms: _3  and  _4
REMARK    3  A    between atoms: _3  and  _6
REMARK    4  A    between atoms: _6  and  _7
REMARK    5  A    between atoms: _7  and  _8
REMARK    6  A    between atoms: _8  and  _9
REMARK    7  A    between atoms: _9  and  _10
REMARK    8  A    between atoms: _14  and  _16
REMARK    9  A    between atoms: _16  and  _17
REMARK   10  A    between atoms: _16  and  _19
REMARK   11  A    between atoms: _19  and  _20
REMARK   12  A    between atoms: _23  and  _25
REMARK   13  A    between atoms: _25  and  _26
REMARK   14  A    between atoms: _25  and  _28
REMARK   15  A    between atoms: _28  and  _29
REMARK   16  A    between atoms: _35  and  _37
REMARK   17  A    between atoms: _37  and  _38
REMARK   18  A    between atoms: _37  and  _40
REMARK   19  A    between atoms: _40  and  _41
REMARK   20  A    between atoms: _41  and  _43
REMARK   21  A    between atoms: _43  and  ZN_321
REMARK   22  A    between atoms: _44  and  _46
REMARK   23  A    between atoms: _46  and  _47
REMARK   24  A    between atoms: _46  and  _49
REMARK   25  A    between atoms: _49  and  _50
REMARK   26  A    between atoms: _52  and  _54
REMARK   27  A    between atoms: _54  and  _55
REMARK   28  A    between atoms: _57  and  _59
REMARK   29  A    between atoms: _59  and  _60
REMARK   30  A    between atoms: _59  and  _62
REMARK   31  A    between atoms: _62  and  _63
REMARK   32  A    between atoms: _65  and  _67
REMARK   33  A    between atoms: _67  and  _68
REMARK   34  A    between atoms: _67  and  _70
REMARK   35  A    between atoms: _70  and  _71
REMARK   36  A    between atoms: _71  and  _72
REMARK   37  A    between atoms: _72  and  _73
REMARK   38  A    between atoms: _73  and  _74
REMARK   39  A    between atoms: _78  and  _80
REMARK   40  A    between atoms: _80  and  _81
REMARK   41  A    between atoms: _80  and  _83
REMARK   42  A    between atoms: _83  and  _84
REMARK   43  A    between atoms: _87  and  _89
REMARK   44  A    between atoms: _89  and  _90
REMARK   45  A    between atoms: _89  and  _92
REMARK   46  A    between atoms: _92  and  _93
REMARK   47  A    between atoms: _93  and  _94
REMARK   48  A    between atoms: _96  and  _98
REMARK   49  A    between atoms: _98  and  _99
REMARK   50  A    between atoms: _102  and  _104
REMARK   51  A    between atoms: _104  and  _105
REMARK   52  A    between atoms: _104  and  _107
REMARK   53  A    between atoms: _107  and  _108
REMARK   54  A    between atoms: _108  and  _110
REMARK   55  A    between atoms: _110  and  ZN_322
REMARK   56  A    between atoms: _111  and  _113
REMARK   57  A    between atoms: _113  and  _114
REMARK   58  A    between atoms: _113  and  _116
REMARK   59  A    between atoms: _116  and  _117
REMARK   60  A    between atoms: _117  and  _118
REMARK   61  A    between atoms: _120  and  _122
REMARK   62  A    between atoms: _122  and  _123
REMARK   63  A    between atoms: _125  and  _127
REMARK   64  A    between atoms: _127  and  _128
REMARK   65  A    between atoms: _127  and  _130
REMARK   66  A    between atoms: _130  and  _131
REMARK   67  A    between atoms: _136  and  _138
REMARK   68  A    between atoms: _138  and  _139
REMARK   69  A    between atoms: _138  and  _141
REMARK   70  A    between atoms: _141  and  _142
REMARK   71  A    between atoms: _147  and  _149
REMARK   72  A    between atoms: _149  and  _150
REMARK   73  A    between atoms: _149  and  _152
REMARK   74  A    between atoms: _152  and  _153
REMARK   75  A    between atoms: _156  and  _158
REMARK   76  A    between atoms: _173  and  _174
REMARK   77  A    between atoms: _178  and  _180
REMARK   78  A    between atoms: _180  and  ZN_322
REMARK   79  A    between atoms: _181  and  _183
REMARK   80  A    between atoms: _183  and  _184
REMARK   81  A    between atoms: _186  and  _188
REMARK   82  A    between atoms: _188  and  _189
REMARK   83  A    between atoms: _188  and  _191
REMARK   84  A    between atoms: _191  and  _192
REMARK   85  A    between atoms: _192  and  _193
REMARK   86  A    between atoms: _193  and  _194
REMARK   87  A    between atoms: _203  and  _205
REMARK   88  A    between atoms: _205  and  _206
REMARK   89  A    between atoms: _205  and  _208
REMARK   90  A    between atoms: _208  and  _209
REMARK   91  A    between atoms: _212  and  _214
REMARK   92  A    between atoms: _214  and  _215
REMARK   93  A    between atoms: _218  and  _220
REMARK   94  A    between atoms: _220  and  _221
REMARK   95  A    between atoms: _220  and  _223
REMARK   96  A    between atoms: _223  and  _224
REMARK   97  A    between atoms: _227  and  _229
REMARK   98  A    between atoms: _229  and  _230
REMARK   99  A    between atoms: _229  and  _232
REMARK  100  A    between atoms: _232  and  _233
REMARK  101  A    between atoms: _236  and  _238
REMARK  102  A    between atoms: _238  and  _239
REMARK  103  A    between atoms: _238  and  _241
REMARK  104  A    between atoms: _241  and  _242
REMARK  105  A    between atoms: _245  and  _247
REMARK  106  A    between atoms: _247  and  _248
REMARK  107  A    between atoms: _250  and  _252
REMARK  108  A    between atoms: _252  and  _253
REMARK  109  A    between atoms: _256  and  _258
REMARK  110  A    between atoms: _258  and  _259
REMARK  111  A    between atoms: _258  and  _261
REMARK  112  A    between atoms: _261  and  _262
REMARK  113  A    between atoms: _262  and  _263
REMARK  114  A    between atoms: _265  and  _267
REMARK  115  A    between atoms: _267  and  _268
REMARK  116  A    between atoms: _267  and  _270
REMARK  117  A    between atoms: _270  and  _271
REMARK  118  A    between atoms: _274  and  _276
REMARK  119  A    between atoms: _276  and  _277
REMARK  120  A    between atoms: _276  and  _279
REMARK  121  A    between atoms: _279  and  _280
REMARK  122  A    between atoms: _283  and  _285
REMARK  123  A    between atoms: _285  and  _286
REMARK  124  A    between atoms: _285  and  _288
REMARK  125  A    between atoms: _288  and  _289
REMARK  126  A    between atoms: _292  and  _294
REMARK  127  A    between atoms: _294  and  _295
REMARK  128  A    between atoms: _294  and  _297
REMARK  129  A    between atoms: _297  and  _298
REMARK  130  A    between atoms: _301  and  _303
REMARK  131  A    between atoms: _303  and  _304
REMARK  132  A    between atoms: _307  and  _309
REMARK  133  A    between atoms: _309  and  _310
REMARK  134  A    between atoms: _312  and  _314
REMARK  135  A    between atoms: _314  and  _315
REMARK  136  A    between atoms: _314  and  _317
REMARK  137  A    between atoms: _317  and  _318
REMARK  138  A    between atoms: _318  and  _319
REMARK                            x       y       z     vdW  Elec       q    Type
REMARK                         _______ _______ _______ _____ _____    ______ ____
ROOT
ATOM      1  CG  LYS A   1      63.580  58.696  11.302  0.00  0.00    -0.000 C 
ENDROOT
BRANCH   1   2
ATOM      2  CB  LYS A   1      63.437  60.213  11.196  0.00  0.00    +0.025 C 
BRANCH   2   3
ATOM      3  CA  LYS A   1      63.036  60.730   9.806  0.00  0.00    +0.133 C 
BRANCH   3   4
ATOM      4  N   LYS A   1      62.688  62.158   9.880  0.00  0.00    -0.239 NA
ATOM      5  H   LYS A   1      62.578  62.604  10.813  0.00  0.00    +0.142 HD
ENDBRANCH   3   4
BRANCH   3   6
ATOM      6  C   LYS A   1      61.800  59.954   9.301  0.00  0.00    +0.224 C 
ATOM      7  O   LYS A   1      60.741  59.968   9.947  0.00  0.00    -0.287 OA
ENDBRANCH   3   6
ENDBRANCH   2   3
ENDBRANCH   1   2
BRANCH   1   8
ATOM      8  CD  LYS A   1      63.702  58.247  12.762  0.00  0.00    -0.024 C 
BRANCH   8   9
ATOM      9  CE  LYS A   1      63.769  56.715  12.857  0.00  0.00    -0.086 C 
BRANCH   9  10
ATOM     10  NZ  LYS A   1      63.889  56.259  14.278  0.00  0.00    +0.380 N 
ATOM     11  HZ1 LYS A   1      63.062  56.587  14.817  0.00  0.00    -0.089 HD
ATOM     12  HZ2 LYS A   1      64.756  56.654  14.695  0.00  0.00    -0.089 HD
ATOM     13  HZ3 LYS A   1      63.932  55.220  14.305  0.00  0.00    -0.089 HD
ENDBRANCH   9  10
ENDBRANCH   8   9
ENDBRANCH   1   8
TORSDOF 7
REMARK  Name = ../refined-set-2016/1lan/1lan_pocket.pdb
REMARK  138 active torsions:
REMARK  status: ('A' for Active; 'I' for Inactive)
REMARK    1  A    between atoms: _1  and  _3
REMARK    2  A    between atoms: _3  and  _4
REMARK    3  A    between atoms: _3  and  _6
REMARK    4  A    between atoms: _6  and  _7
REMARK    5  A    between atoms: _7  and  _8
REMARK    6  A    between atoms: _8  and  _9
REMARK    7  A    between atoms: _9  and  _10
REMARK    8  A    between atoms: _14  and  _16
REMARK    9  A    between atoms: _16  and  _17
REMARK   10  A    between atoms: _16  and  _19
REMARK   11  A    between atoms: _19  and  _20
REMARK   12  A    between atoms: _23  and  _25
REMARK   13  A    between atoms: _25  and  _26
REMARK   14  A    between atoms: _25  and  _28
REMARK   15  A    between atoms: _28  and  _29
REMARK   16  A    between atoms: _35  and  _37
REMARK   17  A    between atoms: _37  and  _38
REMARK   18  A    between atoms: _37  and  _40
REMARK   19  A    between atoms: _40  and  _41
REMARK   20  A    between atoms: _41  and  _43
REMARK   21  A    between atoms: _43  and  ZN_321
REMARK   22  A    between atoms: _44  and  _46
REMARK   23  A    between atoms: _46  and  _47
REMARK   24  A    between atoms: _46  and  _49
REMARK   25  A    between atoms: _49  and  _50
REMARK   26  A    between atoms: _52  and  _54
REMARK   27  A    between atoms: _54  and  _55
REMARK   28  A    between atoms: _57  and  _59
REMARK   29  A    between atoms: _59  and  _60
REMARK   30  A    between atoms: _59  and  _62
REMARK   31  A    between atoms: _62  and  _63
REMARK   32  A    between atoms: _65  and  _67
REMARK   33  A    between atoms: _67  and  _68
REMARK   34  A    between atoms: _67  and  _70
REMARK   35  A    between atoms: _70  and  _71
REMARK   36  A    between atoms: _71  and  _72
REMARK   37  A    between atoms: _72  and  _73
REMARK   38  A    between atoms: _73  and  _74
REMARK   39  A    between atoms: _78  and  _80
REMARK   40  A    between atoms: _80  and  _81
REMARK   41  A    between atoms: _80  and  _83
REMARK   42  A    between atoms: _83  and  _84
REMARK   43  A    between atoms: _87  and  _89
REMARK   44  A    between atoms: _89  and  _90
REMARK   45  A    between atoms: _89  and  _92
REMARK   46  A    between atoms: _92  and  _93
REMARK   47  A    between atoms: _93  and  _94
REMARK   48  A    between atoms: _96  and  _98
REMARK   49  A    between atoms: _98  and  _99
REMARK   50  A    between atoms: _102  and  _104
REMARK   51  A    between atoms: _104  and  _105
REMARK   52  A    between atoms: _104  and  _107
REMARK   53  A    between atoms: _107  and  _108
REMARK   54  A    between atoms: _108  and  _110
REMARK   55  A    between atoms: _110  and  ZN_322
REMARK   56  A    between atoms: _111  and  _113
REMARK   57  A    between atoms: _113  and  _114
REMARK   58  A    between atoms: _113  and  _116
REMARK   59  A    between atoms: _116  and  _117
REMARK   60  A    between atoms: _117  and  _118
REMARK   61  A    between atoms: _120  and  _122
REMARK   62  A    between atoms: _122  and  _123
REMARK   63  A    between atoms: _125  and  _127
REMARK   64  A    between atoms: _127  and  _128
REMARK   65  A    between atoms: _127  and  _130
REMARK   66  A    between atoms: _130  and  _131
REMARK   67  A    between atoms: _136  and  _138
REMARK   68  A    between atoms: _138  and  _139
REMARK   69  A    between atoms: _138  and  _141
REMARK   70  A    between atoms: _141  and  _142
REMARK   71  A    between atoms: _147  and  _149
REMARK   72  A    between atoms: _149  and  _150
REMARK   73  A    between atoms: _149  and  _152
REMARK   74  A    between atoms: _152  and  _153
REMARK   75  A    between atoms: _156  and  _158
REMARK   76  A    between atoms: _173  and  _174
REMARK   77  A    between atoms: _178  and  _180
REMARK   78  A    between atoms: _180  and  ZN_322
REMARK   79  A    between atoms: _181  and  _183
REMARK   80  A    between atoms: _183  and  _184
REMARK   81  A    between atoms: _186  and  _188
REMARK   82  A    between atoms: _188  and  _189
REMARK   83  A    between atoms: _188  and  _191
REMARK   84  A    between atoms: _191  and  _192
REMARK   85  A    between atoms: _192  and  _193
REMARK   86  A    between atoms: _193  and  _194
REMARK   87  A    between atoms: _203  and  _205
REMARK   88  A    between atoms: _205  and  _206
REMARK   89  A    between atoms: _205  and  _208
REMARK   90  A    between atoms: _208  and  _209
REMARK   91  A    between atoms: _212  and  _214
REMARK   92  A    between atoms: _214  and  _215
REMARK   93  A    between atoms: _218  and  _220
REMARK   94  A    between atoms: _220  and  _221
REMARK   95  A    between atoms: _220  and  _223
REMARK   96  A    between atoms: _223  and  _224
REMARK   97  A    between atoms: _227  and  _229
REMARK   98  A    between atoms: _229  and  _230
REMARK   99  A    between atoms: _229  and  _232
REMARK  100  A    between atoms: _232  and  _233
REMARK  101  A    between atoms: _236  and  _238
REMARK  102  A    between atoms: _238  and  _239
REMARK  103  A    between atoms: _238  and  _241
REMARK  104  A    between atoms: _241  and  _242
REMARK  105  A    between atoms: _245  and  _247
REMARK  106  A    between atoms: _247  and  _248
REMARK  107  A    between atoms: _250  and  _252
REMARK  108  A    between atoms: _252  and  _253
REMARK  109  A    between atoms: _256  and  _258
REMARK  110  A    between atoms: _258  and  _259
REMARK  111  A    between atoms: _258  and  _261
REMARK  112  A    between atoms: _261  and  _262
REMARK  113  A    between atoms: _262  and  _263
REMARK  114  A    between atoms: _265  and  _267
REMARK  115  A    between atoms: _267  and  _268
REMARK  116  A    between atoms: _267  and  _270
REMARK  117  A    between atoms: _270  and  _271
REMARK  118  A    between atoms: _274  and  _276
REMARK  119  A    between atoms: _276  and  _277
REMARK  120  A    between atoms: _276  and  _279
REMARK  121  A    between atoms: _279  and  _280
REMARK  122  A    between atoms: _283  and  _285
REMARK  123  A    between atoms: _285  and  _286
REMARK  124  A    between atoms: _285  and  _288
REMARK  125  A    between atoms: _288  and  _289
REMARK  126  A    between atoms: _292  and  _294
REMARK  127  A    between atoms: _294  and  _295
REMARK  128  A    between atoms: _294  and  _297
REMARK  129  A    between atoms: _297  and  _298
REMARK  130  A    between atoms: _301  and  _303
REMARK  131  A    between atoms: _303  and  _304
REMARK  132  A    between atoms: _307  and  _309
REMARK  133  A    between atoms: _309  and  _310
REMARK  134  A    between atoms: _312  and  _314
REMARK  135  A    between atoms: _314  and  _315
REMARK  136  A    between atoms: _314  and  _317
REMARK  137  A    between atoms: _317  and  _318
REMARK  138  A    between atoms: _318  and  _319
REMARK                            x       y       z     vdW  Elec       q    Type
REMARK                         _______ _______ _______ _____ _____    ______ ____
ROOT
ATOM      1  CA  ILE A   1      61.249  54.926   8.696  0.00  0.00    +0.133 C 
ENDROOT
BRANCH   1   2
ATOM      2  N   ILE A   1      61.147  56.385   8.687  0.00  0.00    -0.239 NA
ATOM      3  H   ILE A   1      61.234  56.914   9.578  0.00  0.00    +0.142 HD
ENDBRANCH   1   2
BRANCH   1   4
ATOM      4  CB  ILE A   1      62.065  54.426   9.924  0.00  0.00    +0.023 C 
ATOM      5  CG2 ILE A   1      61.965  52.885  10.061  0.00  0.00    +0.002 C 
BRANCH   4   6
ATOM      6  CG1 ILE A   1      63.531  54.878   9.790  0.00  0.00    +0.002 C 
ATOM      7  CD1 ILE A   1      64.313  54.163   8.688  0.00  0.00    +0.000 C 
ENDBRANCH   4   6
ENDBRANCH   1   4
BRANCH   1   8
ATOM      8  C   ILE A   1      59.793  54.447   8.760  0.00  0.00    +0.224 C 
ATOM      9  O   ILE A   1      59.128  54.598   9.775  0.00  0.00    -0.287 OA
ENDBRANCH   1   8
TORSDOF 4
REMARK  Name = ../refined-set-2016/1lan/1lan_pocket.pdb
REMARK  138 active torsions:
REMARK  status: ('A' for Active; 'I' for Inactive)
REMARK    1  A    between atoms: _1  and  _3
REMARK    2  A    between atoms: _3  and  _4
REMARK    3  A    between atoms: _3  and  _6
REMARK    4  A    between atoms: _6  and  _7
REMARK    5  A    between atoms: _7  and  _8
REMARK    6  A    between atoms: _8  and  _9
REMARK    7  A    between atoms: _9  and  _10
REMARK    8  A    between atoms: _14  and  _16
REMARK    9  A    between atoms: _16  and  _17
REMARK   10  A    between atoms: _16  and  _19
REMARK   11  A    between atoms: _19  and  _20
REMARK   12  A    between atoms: _23  and  _25
REMARK   13  A    between atoms: _25  and  _26
REMARK   14  A    between atoms: _25  and  _28
REMARK   15  A    between atoms: _28  and  _29
REMARK   16  A    between atoms: _35  and  _37
REMARK   17  A    between atoms: _37  and  _38
REMARK   18  A    between atoms: _37  and  _40
REMARK   19  A    between atoms: _40  and  _41
REMARK   20  A    between atoms: _41  and  _43
REMARK   21  A    between atoms: _43  and  ZN_321
REMARK   22  A    between atoms: _44  and  _46
REMARK   23  A    between atoms: _46  and  _47
REMARK   24  A    between atoms: _46  and  _49
REMARK   25  A    between atoms: _49  and  _50
REMARK   26  A    between atoms: _52  and  _54
REMARK   27  A    between atoms: _54  and  _55
REMARK   28  A    between atoms: _57  and  _59
REMARK   29  A    between atoms: _59  and  _60
REMARK   30  A    between atoms: _59  and  _62
REMARK   31  A    between atoms: _62  and  _63
REMARK   32  A    between atoms: _65  and  _67
REMARK   33  A    between atoms: _67  and  _68
REMARK   34  A    between atoms: _67  and  _70
REMARK   35  A    between atoms: _70  and  _71
REMARK   36  A    between atoms: _71  and  _72
REMARK   37  A    between atoms: _72  and  _73
REMARK   38  A    between atoms: _73  and  _74
REMARK   39  A    between atoms: _78  and  _80
REMARK   40  A    between atoms: _80  and  _81
REMARK   41  A    between atoms: _80  and  _83
REMARK   42  A    between atoms: _83  and  _84
REMARK   43  A    between atoms: _87  and  _89
REMARK   44  A    between atoms: _89  and  _90
REMARK   45  A    between atoms: _89  and  _92
REMARK   46  A    between atoms: _92  and  _93
REMARK   47  A    between atoms: _93  and  _94
REMARK   48  A    between atoms: _96  and  _98
REMARK   49  A    between atoms: _98  and  _99
REMARK   50  A    between atoms: _102  and  _104
REMARK   51  A    between atoms: _104  and  _105
REMARK   52  A    between atoms: _104  and  _107
REMARK   53  A    between atoms: _107  and  _108
REMARK   54  A    between atoms: _108  and  _110
REMARK   55  A    between atoms: _110  and  ZN_322
REMARK   56  A    between atoms: _111  and  _113
REMARK   57  A    between atoms: _113  and  _114
REMARK   58  A    between atoms: _113  and  _116
REMARK   59  A    between atoms: _116  and  _117
REMARK   60  A    between atoms: _117  and  _118
REMARK   61  A    between atoms: _120  and  _122
REMARK   62  A    between atoms: _122  and  _123
REMARK   63  A    between atoms: _125  and  _127
REMARK   64  A    between atoms: _127  and  _128
REMARK   65  A    between atoms: _127  and  _130
REMARK   66  A    between atoms: _130  and  _131
REMARK   67  A    between atoms: _136  and  _138
REMARK   68  A    between atoms: _138  and  _139
REMARK   69  A    between atoms: _138  and  _141
REMARK   70  A    between atoms: _141  and  _142
REMARK   71  A    between atoms: _147  and  _149
REMARK   72  A    between atoms: _149  and  _150
REMARK   73  A    between atoms: _149  and  _152
REMARK   74  A    between atoms: _152  and  _153
REMARK   75  A    between atoms: _156  and  _158
REMARK   76  A    between atoms: _173  and  _174
REMARK   77  A    between atoms: _178  and  _180
REMARK   78  A    between atoms: _180  and  ZN_322
REMARK   79  A    between atoms: _181  and  _183
REMARK   80  A    between atoms: _183  and  _184
REMARK   81  A    between atoms: _186  and  _188
REMARK   82  A    between atoms: _188  and  _189
REMARK   83  A    between atoms: _188  and  _191
REMARK   84  A    between atoms: _191  and  _192
REMARK   85  A    between atoms: _192  and  _193
REMARK   86  A    between atoms: _193  and  _194
REMARK   87  A    between atoms: _203  and  _205
REMARK   88  A    between atoms: _205  and  _206
REMARK   89  A    between atoms: _205  and  _208
REMARK   90  A    between atoms: _208  and  _209
REMARK   91  A    between atoms: _212  and  _214
REMARK   92  A    between atoms: _214  and  _215
REMARK   93  A    between atoms: _218  and  _220
REMARK   94  A    between atoms: _220  and  _221
REMARK   95  A    between atoms: _220  and  _223
REMARK   96  A    between atoms: _223  and  _224
REMARK   97  A    between atoms: _227  and  _229
REMARK   98  A    between atoms: _229  and  _230
REMARK   99  A    between atoms: _229  and  _232
REMARK  100  A    between atoms: _232  and  _233
REMARK  101  A    between atoms: _236  and  _238
REMARK  102  A    between atoms: _238  and  _239
REMARK  103  A    between atoms: _238  and  _241
REMARK  104  A    between atoms: _241  and  _242
REMARK  105  A    between atoms: _245  and  _247
REMARK  106  A    between atoms: _247  and  _248
REMARK  107  A    between atoms: _250  and  _252
REMARK  108  A    between atoms: _252  and  _253
REMARK  109  A    between atoms: _256  and  _258
REMARK  110  A    between atoms: _258  and  _259
REMARK  111  A    between atoms: _258  and  _261
REMARK  112  A    between atoms: _261  and  _262
REMARK  113  A    between atoms: _262  and  _263
REMARK  114  A    between atoms: _265  and  _267
REMARK  115  A    between atoms: _267  and  _268
REMARK  116  A    between atoms: _267  and  _270
REMARK  117  A    between atoms: _270  and  _271
REMARK  118  A    between atoms: _274  and  _276
REMARK  119  A    between atoms: _276  and  _277
REMARK  120  A    between atoms: _276  and  _279
REMARK  121  A    between atoms: _279  and  _280
REMARK  122  A    between atoms: _283  and  _285
REMARK  123  A    between atoms: _285  and  _286
REMARK  124  A    between atoms: _285  and  _288
REMARK  125  A    between atoms: _288  and  _289
REMARK  126  A    between atoms: _292  and  _294
REMARK  127  A    between atoms: _294  and  _295
REMARK  128  A    between atoms: _294  and  _297
REMARK  129  A    between atoms: _297  and  _298
REMARK  130  A    between atoms: _301  and  _303
REMARK  131  A    between atoms: _303  and  _304
REMARK  132  A    between atoms: _307  and  _309
REMARK  133  A    between atoms: _309  and  _310
REMARK  134  A    between atoms: _312  and  _314
REMARK  135  A    between atoms: _314  and  _315
REMARK  136  A    between atoms: _314  and  _317
REMARK  137  A    between atoms: _317  and  _318
REMARK  138  A    between atoms: _318  and  _319
REMARK                            x       y       z     vdW  Elec       q    Type
REMARK                         _______ _______ _______ _____ _____    ______ ____
ROOT
ATOM      1 ZN   UNK A   2      65.481  51.654  15.360  0.00  0.00    +0.000 Zn
ATOM      2  O   UNK A   2      65.555  49.765  16.015  0.00  0.00    +0.000 OA
ATOM      3  C   UNK A   2      66.270  49.138  16.843  0.00  0.00    +0.000 C 
ATOM      4  O   UNK A   2      65.807  48.726  17.923  0.00  0.00    +0.000 OA
ATOM      5  C   UNK A   2      67.757  48.837  16.547  0.00  0.00    +0.000 C 
ATOM      6  C   UNK A   2      68.325  49.624  15.351  0.00  0.00    +0.000 C 
ATOM      7  C   UNK A   2      68.497  51.120  15.662  0.00  0.00    +0.000 C 
ATOM      8  N   ALA A   1      69.726  51.625  15.570  0.00  0.00    +0.000 NA
ATOM      9  CA  ALA A   1      69.973  53.057  15.758  0.00  0.00    +0.000 C 
ATOM     10  CB  ALA A   1      71.309  53.289  16.497  0.00  0.00    +0.000 C 
ATOM     11  C   ALA A   1      70.062  53.554  14.306  0.00  0.00    +0.000 C 
ATOM     12  O   ALA A   1      71.062  54.155  13.879  0.00  0.00    +0.000 OA
ATOM     13  N   UNK A   2      69.012  53.260  13.537  0.00  0.00    +0.000 N 
ATOM     14  H   UNK A   2      68.195  52.777  13.962  0.00  0.00    +0.000 HD
ATOM     15  C   UNK A   2      68.975  53.597  12.111  0.00  0.00    +0.000 C 
ATOM     16  C   UNK A   2      68.144  52.546  11.329  0.00  0.00    +0.000 C 
ATOM     17  C   UNK A   2      66.605  52.766  11.300  0.00  0.00    +0.000 C 
ATOM     18  C   UNK A   2      65.917  52.757  12.672  0.00  0.00    +0.000 C 
ATOM     19  H   ALA A   1      70.524  50.992  15.361  0.00  0.00    +0.000 HD
ATOM     20  O   UNK A   2      67.537  51.807  16.008  0.00  0.00    +0.000 OA
ATOM     21  O   UNK A   2      66.321  51.965  13.557  0.00  0.00    +0.000 OA
ENDROOT
BRANCH   6  22
ATOM     22  N   UNK A   2      69.593  49.041  14.912  0.00  0.00    +0.000 N 
ATOM     23  H   UNK A   2      70.216  48.604  15.621  0.00  0.00    +0.000 HD
ATOM     24  C   UNK A   2      69.977  49.050  13.636  0.00  0.00    +0.000 C 
ATOM     25  O   UNK A   2      69.296  49.548  12.739  0.00  0.00    +0.000 OA
BRANCH  24  26
ATOM     26  C   UNK A   2      71.345  48.408  13.316  0.00  0.00    +0.000 C 
BRANCH  26  27
ATOM     27  N   UNK A   2      72.177  48.099  14.482  0.00  0.00    +0.000 N 
ATOM     28  C   UNK A   2      72.723  49.059  15.232  0.00  0.00    +0.000 C 
ATOM     29  O   UNK A   2      72.547  50.262  15.002  0.00  0.00    +0.000 OA
ATOM     30  H   UNK A   2      72.347  47.104  14.732  0.00  0.00    +0.000 HD
BRANCH  28  31
ATOM     31  C   UNK A   2      73.606  48.608  16.409  0.00  0.00    +0.000 C 
BRANCH  31  32
ATOM     32  N   UNK A   2      74.964  49.111  16.149  0.00  0.00    +0.000 NA
ATOM     33  H   UNK A   2      75.085  50.098  15.843  0.00  0.00    +0.000 HD
ENDBRANCH  31  32
BRANCH  31  34
ATOM     34  C   UNK A   2      73.055  49.162  17.735  0.00  0.00    +0.000 C 
BRANCH  34  35
ATOM     35  C   UNK A   2      71.733  48.506  18.138  0.00  0.00    +0.000 C 
ATOM     36  N   UNK A   2      71.716  47.851  19.290  0.00  0.00    +0.000 N 
ATOM     37  H   UNK A   2      72.565  47.834  19.891  0.00  0.00    +0.000 HD
ATOM     38  H   UNK A   2      70.854  47.354  19.593  0.00  0.00    +0.000 HD
ATOM     39  O   UNK A   2      70.761  48.554  17.400  0.00  0.00    +0.000 OA
ENDBRANCH  34  35
ENDBRANCH  31  34
ENDBRANCH  28  31
ENDBRANCH  26  27
BRANCH  26  40
ATOM     40  C   UNK A   2      71.154  47.157  12.411  0.00  0.00    +0.000 C 
ATOM     41  C   UNK A   2      72.487  46.460  12.168  0.00  0.00    +0.000 C 
BRANCH  40  42
ATOM     42  O   UNK A   2      70.284  46.215  13.051  0.00  0.00    +0.000 OA
ATOM     43  H   UNK A   2      69.403  46.638  13.212  0.00  0.00    +0.000 HD
ENDBRANCH  40  42
ENDBRANCH  26  40
ENDBRANCH  24  26
ENDBRANCH   6  22
BRANCH  15  44
ATOM     44  C   UNK A   2      68.539  55.017  11.751  0.00  0.00    +0.000 C 
ATOM     45  N   SER A   3      67.799  55.675  12.632  0.00  0.00    +0.000 N 
ATOM     46  H   SER A   3      67.545  55.228  13.536  0.00  0.00    +0.000 HD
ATOM     47  O   UNK A   2      68.872  55.507  10.678  0.00  0.00    +0.000 OA
BRANCH  45  48
ATOM     48  CA  SER A   3      67.343  57.021  12.334  0.00  0.00    +0.000 C 
BRANCH  48  49
ATOM     49  C   SER A   3      68.471  58.011  12.187  0.00  0.00    +0.000 C 
ATOM     50  N   GLY A   4      69.475  57.896  13.054  0.00  0.00    +0.000 N 
ATOM     51  H   GLY A   4      69.462  57.149  13.778  0.00  0.00    +0.000 HD
ATOM     52  O   SER A   3      68.450  58.853  11.283  0.00  0.00    +0.000 OA
BRANCH  50  53
ATOM     53  CA  GLY A   4      70.596  58.831  12.977  0.00  0.00    +0.000 C 
BRANCH  53  54
ATOM     54  C   GLY A   4      71.395  58.613  11.705  0.00  0.00    +0.000 C 
ATOM     55  N   LEU A   5      71.332  57.394  11.173  0.00  0.00    +0.000 N 
ATOM     56  H   LEU A   5      70.776  56.658  11.653  0.00  0.00    +0.000 HD
ATOM     57  O   GLY A   4      71.995  59.553  11.171  0.00  0.00    +0.000 OA
BRANCH  55  58
ATOM     58  CA  LEU A   5      72.030  57.067   9.925  0.00  0.00    +0.000 C 
BRANCH  58  59
ATOM     59  C   LEU A   5      71.361  57.751   8.727  0.00  0.00    +0.000 C 
ATOM     60  O   LEU A   5      72.021  58.426   7.943  0.00  0.00    +0.000 OA
ENDBRANCH  58  59
BRANCH  58  61
ATOM     61  CB  LEU A   5      72.063  55.554   9.687  0.00  0.00    +0.000 C 
BRANCH  61  62
ATOM     62  CG  LEU A   5      72.809  54.700  10.713  0.00  0.00    +0.000 C 
ATOM     63  CD2 LEU A   5      74.273  55.149  10.821  0.00  0.00    +0.000 C 
ATOM     64  CD1 LEU A   5      72.722  53.220  10.297  0.00  0.00    +0.000 C 
ENDBRANCH  61  62
ENDBRANCH  58  61
ENDBRANCH  55  58
ENDBRANCH  53  54
BRANCH  53  65
ATOM     65  CB  GLY A   4      71.470  58.791  14.239  0.00  0.00    +0.000 C 
BRANCH  65  66
ATOM     66  CG  GLY A   4      72.345  57.569  14.446  0.00  0.00    +0.000 C 
BRANCH  66  67
ATOM     67  CD  GLY A   4      72.845  57.559  15.886  0.00  0.00    +0.000 C 
BRANCH  67  68
ATOM     68  NE  GLY A   4      71.800  57.096  16.796  0.00  0.00    +0.330 N 
ATOM     69  CZ  GLY A   4      71.928  56.967  18.116  0.00  0.00    +0.000 C 
ATOM     70  NH2 GLY A   4      70.915  56.511  18.842  0.00  0.00    +0.330 N 
ATOM     71 HH21 GLY A   4      71.017  56.411  19.872  0.00  0.00    +0.000 HD
ATOM     72 HH22 GLY A   4      70.019  56.254  18.381  0.00  0.00    +0.000 HD
ATOM     73  NH1 GLY A   4      73.051  57.330  18.711  0.00  0.00    +0.330 N 
ATOM     74 HH11 GLY A   4      73.150  57.229  19.741  0.00  0.00    +0.000 HD
ATOM     75 HH12 GLY A   4      73.836  57.717  18.149  0.00  0.00    +0.000 HD
ATOM     76  HE  GLY A   4      70.880  56.847  16.379  0.00  0.00    +0.000 HD
ENDBRANCH  67  68
ENDBRANCH  66  67
ENDBRANCH  65  66
ENDBRANCH  53  65
ENDBRANCH  50  53
ENDBRANCH  48  49
ENDBRANCH  45  48
ENDBRANCH  15  44
BRANCH   1  77
ATOM     77  O   UNK A   2      63.554  51.301  14.640  0.00  0.00    +0.000 OA
BRANCH  77  78
ATOM     78  C   UNK A   2      63.206  50.624  13.652  0.00  0.00    +0.000 C 
ATOM     79  O   UNK A   2      63.985  49.815  13.077  0.00  0.00    +0.000 OA
BRANCH  78  80
ATOM     80  C   UNK A   2      61.783  50.806  13.125  0.00  0.00    +0.000 C 
BRANCH  80  81
ATOM     81  C   UNK A   2      61.337  49.665  12.199  0.00  0.00    +0.000 C 
BRANCH  81  83
ATOM     82  C   ALA A   1      59.941  50.036  10.227  0.00  0.00    +0.000 C 
ATOM     83  N   UNK A   2      60.072  49.998  11.547  0.00  0.00    +0.000 N 
ATOM     84  H   UNK A   2      59.244  50.213  12.139  0.00  0.00    +0.000 HD
ATOM     85  O   ALA A   1      60.874  49.834   9.445  0.00  0.00    +0.000 OA
BRANCH  82  86
ATOM     86  CA  ALA A   1      58.557  50.385   9.716  0.00  0.00    +0.000 C 
BRANCH  86  87
ATOM     87  N   ALA A   1      58.632  51.478   8.761  0.00  0.00    +0.000 NA
ATOM     88  H   ALA A   1      59.532  51.647   8.268  0.00  0.00    +0.000 HD
ENDBRANCH  86  87
BRANCH  86  89
ATOM     89  CB  ALA A   1      57.865  49.105   9.226  0.00  0.00    +0.000 C 
BRANCH  89  90
ATOM     90  CG  ALA A   1      57.585  48.148  10.366  0.00  0.00    +0.000 A 
ATOM     91  CD2 ALA A   1      56.558  48.430  11.275  0.00  0.00    +0.000 A 
ATOM     92  CE2 ALA A   1      56.405  47.681  12.456  0.00  0.00    +0.000 A 
ATOM     93  CZ  ALA A   1      57.269  46.643  12.726  0.00  0.00    +0.000 A 
ATOM     94  CE1 ALA A   1      58.294  46.332  11.827  0.00  0.00    +0.000 A 
ATOM     95  CD1 ALA A   1      58.446  47.086  10.645  0.00  0.00    +0.000 A 
ENDBRANCH  89  90
ENDBRANCH  86  89
ENDBRANCH  82  86
ENDBRANCH  81  83
BRANCH  81  96
ATOM     96  C   UNK A   2      61.251  48.350  12.998  0.00  0.00    +0.000 C 
ATOM     97  O   UNK A   2      60.660  48.296  14.087  0.00  0.00    +0.000 OA
ATOM     98  N   SER A   3      61.841  47.294  12.440  0.00  0.00    +0.000 N 
ATOM     99  H   SER A   3      62.286  47.411  11.507  0.00  0.00    +0.000 HD
BRANCH  98 100
ATOM    100  CA  SER A   3      61.893  45.980  13.076  0.00  0.00    +0.000 C 
BRANCH 100 101
ATOM    101  C   SER A   3      63.180  45.917  13.904  0.00  0.00    +0.000 C 
ATOM    102  O   SER A   3      63.355  45.035  14.759  0.00  0.00    +0.000 OA
ATOM    103  N   GLY A   4      64.098  46.840  13.620  0.00  0.00    +0.000 N 
ATOM    104  H   GLY A   4      63.886  47.559  12.899  0.00  0.00    +0.000 HD
BRANCH 103 105
ATOM    105  CA  GLY A   4      65.386  46.871  14.289  0.00  0.00    +0.000 C 
BRANCH 105 106
ATOM    106  C   GLY A   4      66.502  46.314  13.403  0.00  0.00    +0.000 C 
ATOM    107  O   GLY A   4      67.688  46.636  13.595  0.00  0.00    +0.000 OA
ENDBRANCH 105 106
ENDBRANCH 103 105
ENDBRANCH 100 101
BRANCH 100 108
ATOM    108  CB  SER A   3      61.941  44.877  12.016  0.00  0.00    +0.000 C 
BRANCH 108 109
ATOM    109  OG  SER A   3      63.209  44.818  11.381  0.00  0.00    +0.000 OA
ATOM    110  H   SER A   3      63.397  45.684  10.940  0.00  0.00    +0.000 HD
ENDBRANCH 108 109
ENDBRANCH 100 108
ENDBRANCH  98 100
ENDBRANCH  81  96
ENDBRANCH  80  81
ENDBRANCH  78  80
ENDBRANCH  77  78
ENDBRANCH   1  77
BRANCH  18 111
ATOM    111  O   UNK A   2      64.942  53.539  12.872  0.00  0.00    +0.000 OA
BRANCH 111 112
ATOM    112 ZN   UNK A   2      63.661  54.049  14.429  0.00  0.00    +0.000 Zn
BRANCH 112 113
ATOM    113  O   UNK A   2      61.922  53.957  13.394  0.00  0.00    +0.000 OA
BRANCH 113 114
ATOM    114  C   UNK A   2      60.923  54.569  13.830  0.00  0.00    +0.000 C 
ATOM    115  O   UNK A   2      60.992  55.388  14.779  0.00  0.00    +0.000 OA
BRANCH 114 116
ATOM    116  C   UNK A   2      59.572  54.277  13.170  0.00  0.00    +0.000 C 
BRANCH 116 117
ATOM    117  C   UNK A   2      58.633  55.486  13.172  0.00  0.00    +0.000 C 
BRANCH 117 118
ATOM    118  N   UNK A   2      57.236  55.040  13.118  0.00  0.00    +0.000 N 
ATOM    119  C   ALA A   1      56.232  55.833  13.495  0.00  0.00    +0.000 C 
ATOM    120  O   ALA A   1      56.400  57.006  13.849  0.00  0.00    +0.000 OA
ATOM    121  H   UNK A   2      57.023  54.081  12.777  0.00  0.00    +0.000 HD
BRANCH 119 122
ATOM    122  CA  ALA A   1      54.826  55.248  13.398  0.00  0.00    +0.000 C 
ATOM    123  CB  ALA A   1      54.006  55.684  14.610  0.00  0.00    +0.000 C 
BRANCH 122 124
ATOM    124  N   ALA A   1      54.802  53.783  13.251  0.00  0.00    +0.000 NA
ATOM    125  H   ALA A   1      54.892  53.181  14.094  0.00  0.00    +0.000 HD
ENDBRANCH 122 124
ENDBRANCH 119 122
ENDBRANCH 117 118
BRANCH 117 126
ATOM    126  C   UNK A   2      58.965  56.479  12.030  0.00  0.00    +0.000 C 
ATOM    127  O   UNK A   2      60.128  56.798  11.761  0.00  0.00    +0.000 OA
ATOM    128  N   SER A   3      57.906  56.924  11.352  0.00  0.00    +0.000 N 
ATOM    129  H   SER A   3      56.973  56.529  11.588  0.00  0.00    +0.000 HD
BRANCH 128 130
ATOM    130  CA  SER A   3      57.978  57.929  10.302  0.00  0.00    +0.000 C 
BRANCH 130 131
ATOM    131  C   SER A   3      57.275  59.216  10.815  0.00  0.00    +0.000 C 
ATOM    132  N   GLY A   4      57.056  59.292  12.130  0.00  0.00    +0.000 N 
ATOM    133  H   GLY A   4      57.359  58.508  12.743  0.00  0.00    +0.000 HD
ATOM    134  O   SER A   3      56.967  60.122  10.041  0.00  0.00    +0.000 OA
BRANCH 132 135
ATOM    135  CA  GLY A   4      56.402  60.450  12.724  0.00  0.00    +0.000 C 
BRANCH 135 136
ATOM    136  C   GLY A   4      57.126  61.764  12.482  0.00  0.00    +0.000 C 
ATOM    137  O   GLY A   4      56.499  62.817  12.357  0.00  0.00    +0.000 OA
ENDBRANCH 135 136
ENDBRANCH 132 135
ENDBRANCH 130 131
BRANCH 130 138
ATOM    138  CB  SER A   3      57.368  57.417   8.967  0.00  0.00    +0.000 C 
BRANCH 138 139
ATOM    139  CG  SER A   3      56.142  56.485   9.071  0.00  0.00    +0.000 C 
BRANCH 139 140
ATOM    140  SD  SER A   3      54.717  57.178   9.974  0.00  0.00    +0.000 S 
ATOM    141  CE  SER A   3      54.196  58.437   8.803  0.00  0.00    +0.000 C 
ENDBRANCH 139 140
ENDBRANCH 138 139
ENDBRANCH 130 138
ENDBRANCH 128 130
ENDBRANCH 117 126
ENDBRANCH 116 117
ENDBRANCH 114 116
ENDBRANCH 113 114
ENDBRANCH 112 113
ENDBRANCH 111 112
ENDBRANCH  18 111
TORSDOF 55
REMARK  Name = ../refined-set-2016/1lan/1lan_pocket.pdb
REMARK  138 active torsions:
REMARK  status: ('A' for Active; 'I' for Inactive)
REMARK    1  A    between atoms: _1  and  _3
REMARK    2  A    between atoms: _3  and  _4
REMARK    3  A    between atoms: _3  and  _6
REMARK    4  A    between atoms: _6  and  _7
REMARK    5  A    between atoms: _7  and  _8
REMARK    6  A    between atoms: _8  and  _9
REMARK    7  A    between atoms: _9  and  _10
REMARK    8  A    between atoms: _14  and  _16
REMARK    9  A    between atoms: _16  and  _17
REMARK   10  A    between atoms: _16  and  _19
REMARK   11  A    between atoms: _19  and  _20
REMARK   12  A    between atoms: _23  and  _25
REMARK   13  A    between atoms: _25  and  _26
REMARK   14  A    between atoms: _25  and  _28
REMARK   15  A    between atoms: _28  and  _29
REMARK   16  A    between atoms: _35  and  _37
REMARK   17  A    between atoms: _37  and  _38
REMARK   18  A    between atoms: _37  and  _40
REMARK   19  A    between atoms: _40  and  _41
REMARK   20  A    between atoms: _41  and  _43
REMARK   21  A    between atoms: _43  and  ZN_321
REMARK   22  A    between atoms: _44  and  _46
REMARK   23  A    between atoms: _46  and  _47
REMARK   24  A    between atoms: _46  and  _49
REMARK   25  A    between atoms: _49  and  _50
REMARK   26  A    between atoms: _52  and  _54
REMARK   27  A    between atoms: _54  and  _55
REMARK   28  A    between atoms: _57  and  _59
REMARK   29  A    between atoms: _59  and  _60
REMARK   30  A    between atoms: _59  and  _62
REMARK   31  A    between atoms: _62  and  _63
REMARK   32  A    between atoms: _65  and  _67
REMARK   33  A    between atoms: _67  and  _68
REMARK   34  A    between atoms: _67  and  _70
REMARK   35  A    between atoms: _70  and  _71
REMARK   36  A    between atoms: _71  and  _72
REMARK   37  A    between atoms: _72  and  _73
REMARK   38  A    between atoms: _73  and  _74
REMARK   39  A    between atoms: _78  and  _80
REMARK   40  A    between atoms: _80  and  _81
REMARK   41  A    between atoms: _80  and  _83
REMARK   42  A    between atoms: _83  and  _84
REMARK   43  A    between atoms: _87  and  _89
REMARK   44  A    between atoms: _89  and  _90
REMARK   45  A    between atoms: _89  and  _92
REMARK   46  A    between atoms: _92  and  _93
REMARK   47  A    between atoms: _93  and  _94
REMARK   48  A    between atoms: _96  and  _98
REMARK   49  A    between atoms: _98  and  _99
REMARK   50  A    between atoms: _102  and  _104
REMARK   51  A    between atoms: _104  and  _105
REMARK   52  A    between atoms: _104  and  _107
REMARK   53  A    between atoms: _107  and  _108
REMARK   54  A    between atoms: _108  and  _110
REMARK   55  A    between atoms: _110  and  ZN_322
REMARK   56  A    between atoms: _111  and  _113
REMARK   57  A    between atoms: _113  and  _114
REMARK   58  A    between atoms: _113  and  _116
REMARK   59  A    between atoms: _116  and  _117
REMARK   60  A    between atoms: _117  and  _118
REMARK   61  A    between atoms: _120  and  _122
REMARK   62  A    between atoms: _122  and  _123
REMARK   63  A    between atoms: _125  and  _127
REMARK   64  A    between atoms: _127  and  _128
REMARK   65  A    between atoms: _127  and  _130
REMARK   66  A    between atoms: _130  and  _131
REMARK   67  A    between atoms: _136  and  _138
REMARK   68  A    between atoms: _138  and  _139
REMARK   69  A    between atoms: _138  and  _141
REMARK   70  A    between atoms: _141  and  _142
REMARK   71  A    between atoms: _147  and  _149
REMARK   72  A    between atoms: _149  and  _150
REMARK   73  A    between atoms: _149  and  _152
REMARK   74  A    between atoms: _152  and  _153
REMARK   75  A    between atoms: _156  and  _158
REMARK   76  A    between atoms: _173  and  _174
REMARK   77  A    between atoms: _178  and  _180
REMARK   78  A    between atoms: _180  and  ZN_322
REMARK   79  A    between atoms: _181  and  _183
REMARK   80  A    between atoms: _183  and  _184
REMARK   81  A    between atoms: _186  and  _188
REMARK   82  A    between atoms: _188  and  _189
REMARK   83  A    between atoms: _188  and  _191
REMARK   84  A    between atoms: _191  and  _192
REMARK   85  A    between atoms: _192  and  _193
REMARK   86  A    between atoms: _193  and  _194
REMARK   87  A    between atoms: _203  and  _205
REMARK   88  A    between atoms: _205  and  _206
REMARK   89  A    between atoms: _205  and  _208
REMARK   90  A    between atoms: _208  and  _209
REMARK   91  A    between atoms: _212  and  _214
REMARK   92  A    between atoms: _214  and  _215
REMARK   93  A    between atoms: _218  and  _220
REMARK   94  A    between atoms: _220  and  _221
REMARK   95  A    between atoms: _220  and  _223
REMARK   96  A    between atoms: _223  and  _224
REMARK   97  A    between atoms: _227  and  _229
REMARK   98  A    between atoms: _229  and  _230
REMARK   99  A    between atoms: _229  and  _232
REMARK  100  A    between atoms: _232  and  _233
REMARK  101  A    between atoms: _236  and  _238
REMARK  102  A    between atoms: _238  and  _239
REMARK  103  A    between atoms: _238  and  _241
REMARK  104  A    between atoms: _241  and  _242
REMARK  105  A    between atoms: _245  and  _247
REMARK  106  A    between atoms: _247  and  _248
REMARK  107  A    between atoms: _250  and  _252
REMARK  108  A    between atoms: _252  and  _253
REMARK  109  A    between atoms: _256  and  _258
REMARK  110  A    between atoms: _258  and  _259
REMARK  111  A    between atoms: _258  and  _261
REMARK  112  A    between atoms: _261  and  _262
REMARK  113  A    between atoms: _262  and  _263
REMARK  114  A    between atoms: _265  and  _267
REMARK  115  A    between atoms: _267  and  _268
REMARK  116  A    between atoms: _267  and  _270
REMARK  117  A    between atoms: _270  and  _271
REMARK  118  A    between atoms: _274  and  _276
REMARK  119  A    between atoms: _276  and  _277
REMARK  120  A    between atoms: _276  and  _279
REMARK  121  A    between atoms: _279  and  _280
REMARK  122  A    between atoms: _283  and  _285
REMARK  123  A    between atoms: _285  and  _286
REMARK  124  A    between atoms: _285  and  _288
REMARK  125  A    between atoms: _288  and  _289
REMARK  126  A    between atoms: _292  and  _294
REMARK  127  A    between atoms: _294  and  _295
REMARK  128  A    between atoms: _294  and  _297
REMARK  129  A    between atoms: _297  and  _298
REMARK  130  A    between atoms: _301  and  _303
REMARK  131  A    between atoms: _303  and  _304
REMARK  132  A    between atoms: _307  and  _309
REMARK  133  A    between atoms: _309  and  _310
REMARK  134  A    between atoms: _312  and  _314
REMARK  135  A    between atoms: _314  and  _315
REMARK  136  A    between atoms: _314  and  _317
REMARK  137  A    between atoms: _317  and  _318
REMARK  138  A    between atoms: _318  and  _319
REMARK                            x       y       z     vdW  Elec       q    Type
REMARK                         _______ _______ _______ _____ _____    ______ ____
ROOT
ATOM      1  CA  SER A   1      69.790  43.996  16.002  0.00  0.00    +0.163 C 
ENDROOT
BRANCH   1   2
ATOM      2  N   SER A   1      69.861  43.706  14.557  0.00  0.00    -0.237 NA
ATOM      3  H   SER A   1      69.990  44.499  13.897  0.00  0.00    +0.142 HD
ENDBRANCH   1   2
BRANCH   1   4
ATOM      4  CB  SER A   1      68.270  44.079  16.247  0.00  0.00    +0.227 C 
ATOM      5  OG  SER A   1      67.752  45.131  16.629  0.00  0.00    -0.287 OA
ENDBRANCH   1   4
BRANCH   1   6
ATOM      6  C   SER A   1      70.394  45.387  16.303  0.00  0.00    +0.162 C 
BRANCH   6   7
ATOM      7  O   SER A   1      71.750  45.516  15.910  0.00  0.00    -0.380 OA
ATOM      8  H   SER A   1      72.297  44.846  16.391  0.00  0.00    +0.211 HD
ENDBRANCH   6   7
ENDBRANCH   1   6
TORSDOF 4
REMARK  Name = ../refined-set-2016/1lan/1lan_pocket.pdb
REMARK  138 active torsions:
REMARK  status: ('A' for Active; 'I' for Inactive)
REMARK    1  A    between atoms: _1  and  _3
REMARK    2  A    between atoms: _3  and  _4
REMARK    3  A    between atoms: _3  and  _6
REMARK    4  A    between atoms: _6  and  _7
REMARK    5  A    between atoms: _7  and  _8
REMARK    6  A    between atoms: _8  and  _9
REMARK    7  A    between atoms: _9  and  _10
REMARK    8  A    between atoms: _14  and  _16
REMARK    9  A    between atoms: _16  and  _17
REMARK   10  A    between atoms: _16  and  _19
REMARK   11  A    between atoms: _19  and  _20
REMARK   12  A    between atoms: _23  and  _25
REMARK   13  A    between atoms: _25  and  _26
REMARK   14  A    between atoms: _25  and  _28
REMARK   15  A    between atoms: _28  and  _29
REMARK   16  A    between atoms: _35  and  _37
REMARK   17  A    between atoms: _37  and  _38
REMARK   18  A    between atoms: _37  and  _40
REMARK   19  A    between atoms: _40  and  _41
REMARK   20  A    between atoms: _41  and  _43
REMARK   21  A    between atoms: _43  and  ZN_321
REMARK   22  A    between atoms: _44  and  _46
REMARK   23  A    between atoms: _46  and  _47
REMARK   24  A    between atoms: _46  and  _49
REMARK   25  A    between atoms: _49  and  _50
REMARK   26  A    between atoms: _52  and  _54
REMARK   27  A    between atoms: _54  and  _55
REMARK   28  A    between atoms: _57  and  _59
REMARK   29  A    between atoms: _59  and  _60
REMARK   30  A    between atoms: _59  and  _62
REMARK   31  A    between atoms: _62  and  _63
REMARK   32  A    between atoms: _65  and  _67
REMARK   33  A    between atoms: _67  and  _68
REMARK   34  A    between atoms: _67  and  _70
REMARK   35  A    between atoms: _70  and  _71
REMARK   36  A    between atoms: _71  and  _72
REMARK   37  A    between atoms: _72  and  _73
REMARK   38  A    between atoms: _73  and  _74
REMARK   39  A    between atoms: _78  and  _80
REMARK   40  A    between atoms: _80  and  _81
REMARK   41  A    between atoms: _80  and  _83
REMARK   42  A    between atoms: _83  and  _84
REMARK   43  A    between atoms: _87  and  _89
REMARK   44  A    between atoms: _89  and  _90
REMARK   45  A    between atoms: _89  and  _92
REMARK   46  A    between atoms: _92  and  _93
REMARK   47  A    between atoms: _93  and  _94
REMARK   48  A    between atoms: _96  and  _98
REMARK   49  A    between atoms: _98  and  _99
REMARK   50  A    between atoms: _102  and  _104
REMARK   51  A    between atoms: _104  and  _105
REMARK   52  A    between atoms: _104  and  _107
REMARK   53  A    between atoms: _107  and  _108
REMARK   54  A    between atoms: _108  and  _110
REMARK   55  A    between atoms: _110  and  ZN_322
REMARK   56  A    between atoms: _111  and  _113
REMARK   57  A    between atoms: _113  and  _114
REMARK   58  A    between atoms: _113  and  _116
REMARK   59  A    between atoms: _116  and  _117
REMARK   60  A    between atoms: _117  and  _118
REMARK   61  A    between atoms: _120  and  _122
REMARK   62  A    between atoms: _122  and  _123
REMARK   63  A    between atoms: _125  and  _127
REMARK   64  A    between atoms: _127  and  _128
REMARK   65  A    between atoms: _127  and  _130
REMARK   66  A    between atoms: _130  and  _131
REMARK   67  A    between atoms: _136  and  _138
REMARK   68  A    between atoms: _138  and  _139
REMARK   69  A    between atoms: _138  and  _141
REMARK   70  A    between atoms: _141  and  _142
REMARK   71  A    between atoms: _147  and  _149
REMARK   72  A    between atoms: _149  and  _150
REMARK   73  A    between atoms: _149  and  _152
REMARK   74  A    between atoms: _152  and  _153
REMARK   75  A    between atoms: _156  and  _158
REMARK   76  A    between atoms: _173  and  _174
REMARK   77  A    between atoms: _178  and  _180
REMARK   78  A    between atoms: _180  and  ZN_322
REMARK   79  A    between atoms: _181  and  _183
REMARK   80  A    between atoms: _183  and  _184
REMARK   81  A    between atoms: _186  and  _188
REMARK   82  A    between atoms: _188  and  _189
REMARK   83  A    between atoms: _188  and  _191
REMARK   84  A    between atoms: _191  and  _192
REMARK   85  A    between atoms: _192  and  _193
REMARK   86  A    between atoms: _193  and  _194
REMARK   87  A    between atoms: _203  and  _205
REMARK   88  A    between atoms: _205  and  _206
REMARK   89  A    between atoms: _205  and  _208
REMARK   90  A    between atoms: _208  and  _209
REMARK   91  A    between atoms: _212  and  _214
REMARK   92  A    between atoms: _214  and  _215
REMARK   93  A    between atoms: _218  and  _220
REMARK   94  A    between atoms: _220  and  _221
REMARK   95  A    between atoms: _220  and  _223
REMARK   96  A    between atoms: _223  and  _224
REMARK   97  A    between atoms: _227  and  _229
REMARK   98  A    between atoms: _229  and  _230
REMARK   99  A    between atoms: _229  and  _232
REMARK  100  A    between atoms: _232  and  _233
REMARK  101  A    between atoms: _236  and  _238
REMARK  102  A    between atoms: _238  and  _239
REMARK  103  A    between atoms: _238  and  _241
REMARK  104  A    between atoms: _241  and  _242
REMARK  105  A    between atoms: _245  and  _247
REMARK  106  A    between atoms: _247  and  _248
REMARK  107  A    between atoms: _250  and  _252
REMARK  108  A    between atoms: _252  and  _253
REMARK  109  A    between atoms: _256  and  _258
REMARK  110  A    between atoms: _258  and  _259
REMARK  111  A    between atoms: _258  and  _261
REMARK  112  A    between atoms: _261  and  _262
REMARK  113  A    between atoms: _262  and  _263
REMARK  114  A    between atoms: _265  and  _267
REMARK  115  A    between atoms: _267  and  _268
REMARK  116  A    between atoms: _267  and  _270
REMARK  117  A    between atoms: _270  and  _271
REMARK  118  A    between atoms: _274  and  _276
REMARK  119  A    between atoms: _276  and  _277
REMARK  120  A    between atoms: _276  and  _279
REMARK  121  A    between atoms: _279  and  _280
REMARK  122  A    between atoms: _283  and  _285
REMARK  123  A    between atoms: _285  and  _286
REMARK  124  A    between atoms: _285  and  _288
REMARK  125  A    between atoms: _288  and  _289
REMARK  126  A    between atoms: _292  and  _294
REMARK  127  A    between atoms: _294  and  _295
REMARK  128  A    between atoms: _294  and  _297
REMARK  129  A    between atoms: _297  and  _298
REMARK  130  A    between atoms: _301  and  _303
REMARK  131  A    between atoms: _303  and  _304
REMARK  132  A    between atoms: _307  and  _309
REMARK  133  A    between atoms: _309  and  _310
REMARK  134  A    between atoms: _312  and  _314
REMARK  135  A    between atoms: _314  and  _315
REMARK  136  A    between atoms: _314  and  _317
REMARK  137  A    between atoms: _317  and  _318
REMARK  138  A    between atoms: _318  and  _319
REMARK                            x       y       z     vdW  Elec       q    Type
REMARK                         _______ _______ _______ _____ _____    ______ ____
ROOT
ATOM      1  CG  LYS A   1      63.038  46.775  17.574  0.00  0.00    -0.000 C 
ENDROOT
BRANCH   1   2
ATOM      2  CB  LYS A   1      62.452  45.427  17.972  0.00  0.00    +0.025 C 
BRANCH   2   3
ATOM      3  CA  LYS A   1      63.459  44.345  18.379  0.00  0.00    +0.133 C 
BRANCH   3   4
ATOM      4  N   LYS A   1      64.248  43.923  17.231  0.00  0.00    -0.239 NA
ATOM      5  H   LYS A   1      63.911  44.160  16.276  0.00  0.00    +0.142 HD
ENDBRANCH   3   4
BRANCH   3   6
ATOM      6  C   LYS A   1      62.671  43.184  18.980  0.00  0.00    +0.224 C 
ATOM      7  O   LYS A   1      62.443  42.173  18.317  0.00  0.00    -0.287 OA
ENDBRANCH   3   6
ENDBRANCH   2   3
ENDBRANCH   1   2
BRANCH   1   8
ATOM      8  CD  LYS A   1      61.912  47.733  17.139  0.00  0.00    -0.024 C 
BRANCH   8   9
ATOM      9  CE  LYS A   1      62.450  49.109  16.765  0.00  0.00    -0.086 C 
BRANCH   9  10
ATOM     10  NZ  LYS A   1      63.145  49.760  17.913  0.00  0.00    +0.380 N 
ATOM     11  HZ1 LYS A   1      62.477  49.872  18.702  0.00  0.00    -0.089 HD
ATOM     12  HZ2 LYS A   1      63.944  49.166  18.215  0.00  0.00    -0.089 HD
ATOM     13  HZ3 LYS A   1      63.497  50.694  17.619  0.00  0.00    -0.089 HD
ENDBRANCH   9  10
ENDBRANCH   8   9
ENDBRANCH   1   8
TORSDOF 7
REMARK  Name = ../refined-set-2016/1lan/1lan_pocket.pdb
REMARK  138 active torsions:
REMARK  status: ('A' for Active; 'I' for Inactive)
REMARK    1  A    between atoms: _1  and  _3
REMARK    2  A    between atoms: _3  and  _4
REMARK    3  A    between atoms: _3  and  _6
REMARK    4  A    between atoms: _6  and  _7
REMARK    5  A    between atoms: _7  and  _8
REMARK    6  A    between atoms: _8  and  _9
REMARK    7  A    between atoms: _9  and  _10
REMARK    8  A    between atoms: _14  and  _16
REMARK    9  A    between atoms: _16  and  _17
REMARK   10  A    between atoms: _16  and  _19
REMARK   11  A    between atoms: _19  and  _20
REMARK   12  A    between atoms: _23  and  _25
REMARK   13  A    between atoms: _25  and  _26
REMARK   14  A    between atoms: _25  and  _28
REMARK   15  A    between atoms: _28  and  _29
REMARK   16  A    between atoms: _35  and  _37
REMARK   17  A    between atoms: _37  and  _38
REMARK   18  A    between atoms: _37  and  _40
REMARK   19  A    between atoms: _40  and  _41
REMARK   20  A    between atoms: _41  and  _43
REMARK   21  A    between atoms: _43  and  ZN_321
REMARK   22  A    between atoms: _44  and  _46
REMARK   23  A    between atoms: _46  and  _47
REMARK   24  A    between atoms: _46  and  _49
REMARK   25  A    between atoms: _49  and  _50
REMARK   26  A    between atoms: _52  and  _54
REMARK   27  A    between atoms: _54  and  _55
REMARK   28  A    between atoms: _57  and  _59
REMARK   29  A    between atoms: _59  and  _60
REMARK   30  A    between atoms: _59  and  _62
REMARK   31  A    between atoms: _62  and  _63
REMARK   32  A    between atoms: _65  and  _67
REMARK   33  A    between atoms: _67  and  _68
REMARK   34  A    between atoms: _67  and  _70
REMARK   35  A    between atoms: _70  and  _71
REMARK   36  A    between atoms: _71  and  _72
REMARK   37  A    between atoms: _72  and  _73
REMARK   38  A    between atoms: _73  and  _74
REMARK   39  A    between atoms: _78  and  _80
REMARK   40  A    between atoms: _80  and  _81
REMARK   41  A    between atoms: _80  and  _83
REMARK   42  A    between atoms: _83  and  _84
REMARK   43  A    between atoms: _87  and  _89
REMARK   44  A    between atoms: _89  and  _90
REMARK   45  A    between atoms: _89  and  _92
REMARK   46  A    between atoms: _92  and  _93
REMARK   47  A    between atoms: _93  and  _94
REMARK   48  A    between atoms: _96  and  _98
REMARK   49  A    between atoms: _98  and  _99
REMARK   50  A    between atoms: _102  and  _104
REMARK   51  A    between atoms: _104  and  _105
REMARK   52  A    between atoms: _104  and  _107
REMARK   53  A    between atoms: _107  and  _108
REMARK   54  A    between atoms: _108  and  _110
REMARK   55  A    between atoms: _110  and  ZN_322
REMARK   56  A    between atoms: _111  and  _113
REMARK   57  A    between atoms: _113  and  _114
REMARK   58  A    between atoms: _113  and  _116
REMARK   59  A    between atoms: _116  and  _117
REMARK   60  A    between atoms: _117  and  _118
REMARK   61  A    between atoms: _120  and  _122
REMARK   62  A    between atoms: _122  and  _123
REMARK   63  A    between atoms: _125  and  _127
REMARK   64  A    between atoms: _127  and  _128
REMARK   65  A    between atoms: _127  and  _130
REMARK   66  A    between atoms: _130  and  _131
REMARK   67  A    between atoms: _136  and  _138
REMARK   68  A    between atoms: _138  and  _139
REMARK   69  A    between atoms: _138  and  _141
REMARK   70  A    between atoms: _141  and  _142
REMARK   71  A    between atoms: _147  and  _149
REMARK   72  A    between atoms: _149  and  _150
REMARK   73  A    between atoms: _149  and  _152
REMARK   74  A    between atoms: _152  and  _153
REMARK   75  A    between atoms: _156  and  _158
REMARK   76  A    between atoms: _173  and  _174
REMARK   77  A    between atoms: _178  and  _180
REMARK   78  A    between atoms: _180  and  ZN_322
REMARK   79  A    between atoms: _181  and  _183
REMARK   80  A    between atoms: _183  and  _184
REMARK   81  A    between atoms: _186  and  _188
REMARK   82  A    between atoms: _188  and  _189
REMARK   83  A    between atoms: _188  and  _191
REMARK   84  A    between atoms: _191  and  _192
REMARK   85  A    between atoms: _192  and  _193
REMARK   86  A    between atoms: _193  and  _194
REMARK   87  A    between atoms: _203  and  _205
REMARK   88  A    between atoms: _205  and  _206
REMARK   89  A    between atoms: _205  and  _208
REMARK   90  A    between atoms: _208  and  _209
REMARK   91  A    between atoms: _212  and  _214
REMARK   92  A    between atoms: _214  and  _215
REMARK   93  A    between atoms: _218  and  _220
REMARK   94  A    between atoms: _220  and  _221
REMARK   95  A    between atoms: _220  and  _223
REMARK   96  A    between atoms: _223  and  _224
REMARK   97  A    between atoms: _227  and  _229
REMARK   98  A    between atoms: _229  and  _230
REMARK   99  A    between atoms: _229  and  _232
REMARK  100  A    between atoms: _232  and  _233
REMARK  101  A    between atoms: _236  and  _238
REMARK  102  A    between atoms: _238  and  _239
REMARK  103  A    between atoms: _238  and  _241
REMARK  104  A    between atoms: _241  and  _242
REMARK  105  A    between atoms: _245  and  _247
REMARK  106  A    between atoms: _247  and  _248
REMARK  107  A    between atoms: _250  and  _252
REMARK  108  A    between atoms: _252  and  _253
REMARK  109  A    between atoms: _256  and  _258
REMARK  110  A    between atoms: _258  and  _259
REMARK  111  A    between atoms: _258  and  _261
REMARK  112  A    between atoms: _261  and  _262
REMARK  113  A    between atoms: _262  and  _263
REMARK  114  A    between atoms: _265  and  _267
REMARK  115  A    between atoms: _267  and  _268
REMARK  116  A    between atoms: _267  and  _270
REMARK  117  A    between atoms: _270  and  _271
REMARK  118  A    between atoms: _274  and  _276
REMARK  119  A    between atoms: _276  and  _277
REMARK  120  A    between atoms: _276  and  _279
REMARK  121  A    between atoms: _279  and  _280
REMARK  122  A    between atoms: _283  and  _285
REMARK  123  A    between atoms: _285  and  _286
REMARK  124  A    between atoms: _285  and  _288
REMARK  125  A    between atoms: _288  and  _289
REMARK  126  A    between atoms: _292  and  _294
REMARK  127  A    between atoms: _294  and  _295
REMARK  128  A    between atoms: _294  and  _297
REMARK  129  A    between atoms: _297  and  _298
REMARK  130  A    between atoms: _301  and  _303
REMARK  131  A    between atoms: _303  and  _304
REMARK  132  A    between atoms: _307  and  _309
REMARK  133  A    between atoms: _309  and  _310
REMARK  134  A    between atoms: _312  and  _314
REMARK  135  A    between atoms: _314  and  _315
REMARK  136  A    between atoms: _314  and  _317
REMARK  137  A    between atoms: _317  and  _318
REMARK  138  A    between atoms: _318  and  _319
REMARK                            x       y       z     vdW  Elec       q    Type
REMARK                         _______ _______ _______ _____ _____    ______ ____
ROOT
ATOM      1  C   LEU A   1      54.872  51.410  16.313  0.00  0.00    +0.238 C 
ATOM      2  O   LEU A   1      54.881  52.620  16.059  0.00  0.00    -0.274 OA
ATOM      3  N   MET A   2      55.798  50.567  15.852  0.00  0.00    -0.298 N 
ATOM      4  H   MET A   2      55.737  49.561  16.109  0.00  0.00    +0.150 HD
ENDROOT
BRANCH   1   5
ATOM      5  CA  LEU A   1      53.768  50.816  17.174  0.00  0.00    +0.145 C 
BRANCH   5   6
ATOM      6  N   LEU A   1      53.685  49.358  17.062  0.00  0.00    -0.238 NA
ATOM      7  H   LEU A   1      53.868  48.773  17.902  0.00  0.00    +0.142 HD
ENDBRANCH   5   6
BRANCH   5   8
ATOM      8  CB  LEU A   1      53.957  51.239  18.621  0.00  0.00    +0.026 C 
BRANCH   8   9
ATOM      9  CG  LEU A   1      52.802  50.887  19.564  0.00  0.00    +0.002 C 
ATOM     10  CD2 LEU A   1      53.184  51.294  20.972  0.00  0.00    +0.000 C 
ATOM     11  CD1 LEU A   1      51.505  51.569  19.137  0.00  0.00    +0.000 C 
ENDBRANCH   8   9
ENDBRANCH   5   8
ENDBRANCH   1   5
BRANCH   3  12
ATOM     12  CA  MET A   2      56.904  51.018  14.991  0.00  0.00    +0.138 C 
BRANCH  12  13
ATOM     13  C   MET A   2      56.472  51.419  13.580  0.00  0.00    +0.227 C 
ATOM     14  O   MET A   2      57.295  51.895  12.784  0.00  0.00    -0.286 OA
ENDBRANCH  12  13
BRANCH  12  15
ATOM     15  CB  MET A   2      58.074  50.012  14.955  0.00  0.00    +0.039 C 
BRANCH  15  16
ATOM     16  CG  MET A   2      58.830  49.890  16.302  0.00  0.00    +0.060 C 
BRANCH  16  17
ATOM     17  SD  MET A   2      59.485  51.452  16.951  0.00  0.00    -0.139 S 
ATOM     18  CE  MET A   2      58.278  51.880  18.185  0.00  0.00    +0.069 C 
ENDBRANCH  16  17
ENDBRANCH  15  16
ENDBRANCH  12  15
ENDBRANCH   3  12
TORSDOF 9
REMARK  Name = ../refined-set-2016/1lan/1lan_pocket.pdb
REMARK  138 active torsions:
REMARK  status: ('A' for Active; 'I' for Inactive)
REMARK    1  A    between atoms: _1  and  _3
REMARK    2  A    between atoms: _3  and  _4
REMARK    3  A    between atoms: _3  and  _6
REMARK    4  A    between atoms: _6  and  _7
REMARK    5  A    between atoms: _7  and  _8
REMARK    6  A    between atoms: _8  and  _9
REMARK    7  A    between atoms: _9  and  _10
REMARK    8  A    between atoms: _14  and  _16
REMARK    9  A    between atoms: _16  and  _17
REMARK   10  A    between atoms: _16  and  _19
REMARK   11  A    between atoms: _19  and  _20
REMARK   12  A    between atoms: _23  and  _25
REMARK   13  A    between atoms: _25  and  _26
REMARK   14  A    between atoms: _25  and  _28
REMARK   15  A    between atoms: _28  and  _29
REMARK   16  A    between atoms: _35  and  _37
REMARK   17  A    between atoms: _37  and  _38
REMARK   18  A    between atoms: _37  and  _40
REMARK   19  A    between atoms: _40  and  _41
REMARK   20  A    between atoms: _41  and  _43
REMARK   21  A    between atoms: _43  and  ZN_321
REMARK   22  A    between atoms: _44  and  _46
REMARK   23  A    between atoms: _46  and  _47
REMARK   24  A    between atoms: _46  and  _49
REMARK   25  A    between atoms: _49  and  _50
REMARK   26  A    between atoms: _52  and  _54
REMARK   27  A    between atoms: _54  and  _55
REMARK   28  A    between atoms: _57  and  _59
REMARK   29  A    between atoms: _59  and  _60
REMARK   30  A    between atoms: _59  and  _62
REMARK   31  A    between atoms: _62  and  _63
REMARK   32  A    between atoms: _65  and  _67
REMARK   33  A    between atoms: _67  and  _68
REMARK   34  A    between atoms: _67  and  _70
REMARK   35  A    between atoms: _70  and  _71
REMARK   36  A    between atoms: _71  and  _72
REMARK   37  A    between atoms: _72  and  _73
REMARK   38  A    between atoms: _73  and  _74
REMARK   39  A    between atoms: _78  and  _80
REMARK   40  A    between atoms: _80  and  _81
REMARK   41  A    between atoms: _80  and  _83
REMARK   42  A    between atoms: _83  and  _84
REMARK   43  A    between atoms: _87  and  _89
REMARK   44  A    between atoms: _89  and  _90
REMARK   45  A    between atoms: _89  and  _92
REMARK   46  A    between atoms: _92  and  _93
REMARK   47  A    between atoms: _93  and  _94
REMARK   48  A    between atoms: _96  and  _98
REMARK   49  A    between atoms: _98  and  _99
REMARK   50  A    between atoms: _102  and  _104
REMARK   51  A    between atoms: _104  and  _105
REMARK   52  A    between atoms: _104  and  _107
REMARK   53  A    between atoms: _107  and  _108
REMARK   54  A    between atoms: _108  and  _110
REMARK   55  A    between atoms: _110  and  ZN_322
REMARK   56  A    between atoms: _111  and  _113
REMARK   57  A    between atoms: _113  and  _114
REMARK   58  A    between atoms: _113  and  _116
REMARK   59  A    between atoms: _116  and  _117
REMARK   60  A    between atoms: _117  and  _118
REMARK   61  A    between atoms: _120  and  _122
REMARK   62  A    between atoms: _122  and  _123
REMARK   63  A    between atoms: _125  and  _127
REMARK   64  A    between atoms: _127  and  _128
REMARK   65  A    between atoms: _127  and  _130
REMARK   66  A    between atoms: _130  and  _131
REMARK   67  A    between atoms: _136  and  _138
REMARK   68  A    between atoms: _138  and  _139
REMARK   69  A    between atoms: _138  and  _141
REMARK   70  A    between atoms: _141  and  _142
REMARK   71  A    between atoms: _147  and  _149
REMARK   72  A    between atoms: _149  and  _150
REMARK   73  A    between atoms: _149  and  _152
REMARK   74  A    between atoms: _152  and  _153
REMARK   75  A    between atoms: _156  and  _158
REMARK   76  A    between atoms: _173  and  _174
REMARK   77  A    between atoms: _178  and  _180
REMARK   78  A    between atoms: _180  and  ZN_322
REMARK   79  A    between atoms: _181  and  _183
REMARK   80  A    between atoms: _183  and  _184
REMARK   81  A    between atoms: _186  and  _188
REMARK   82  A    between atoms: _188  and  _189
REMARK   83  A    between atoms: _188  and  _191
REMARK   84  A    between atoms: _191  and  _192
REMARK   85  A    between atoms: _192  and  _193
REMARK   86  A    between atoms: _193  and  _194
REMARK   87  A    between atoms: _203  and  _205
REMARK   88  A    between atoms: _205  and  _206
REMARK   89  A    between atoms: _205  and  _208
REMARK   90  A    between atoms: _208  and  _209
REMARK   91  A    between atoms: _212  and  _214
REMARK   92  A    between atoms: _214  and  _215
REMARK   93  A    between atoms: _218  and  _220
REMARK   94  A    between atoms: _220  and  _221
REMARK   95  A    between atoms: _220  and  _223
REMARK   96  A    between atoms: _223  and  _224
REMARK   97  A    between atoms: _227  and  _229
REMARK   98  A    between atoms: _229  and  _230
REMARK   99  A    between atoms: _229  and  _232
REMARK  100  A    between atoms: _232  and  _233
REMARK  101  A    between atoms: _236  and  _238
REMARK  102  A    between atoms: _238  and  _239
REMARK  103  A    between atoms: _238  and  _241
REMARK  104  A    between atoms: _241  and  _242
REMARK  105  A    between atoms: _245  and  _247
REMARK  106  A    between atoms: _247  and  _248
REMARK  107  A    between atoms: _250  and  _252
REMARK  108  A    between atoms: _252  and  _253
REMARK  109  A    between atoms: _256  and  _258
REMARK  110  A    between atoms: _258  and  _259
REMARK  111  A    between atoms: _258  and  _261
REMARK  112  A    between atoms: _261  and  _262
REMARK  113  A    between atoms: _262  and  _263
REMARK  114  A    between atoms: _265  and  _267
REMARK  115  A    between atoms: _267  and  _268
REMARK  116  A    between atoms: _267  and  _270
REMARK  117  A    between atoms: _270  and  _271
REMARK  118  A    between atoms: _274  and  _276
REMARK  119  A    between atoms: _276  and  _277
REMARK  120  A    between atoms: _276  and  _279
REMARK  121  A    between atoms: _279  and  _280
REMARK  122  A    between atoms: _283  and  _285
REMARK  123  A    between atoms: _285  and  _286
REMARK  124  A    between atoms: _285  and  _288
REMARK  125  A    between atoms: _288  and  _289
REMARK  126  A    between atoms: _292  and  _294
REMARK  127  A    between atoms: _294  and  _295
REMARK  128  A    between atoms: _294  and  _297
REMARK  129  A    between atoms: _297  and  _298
REMARK  130  A    between atoms: _301  and  _303
REMARK  131  A    between atoms: _303  and  _304
REMARK  132  A    between atoms: _307  and  _309
REMARK  133  A    between atoms: _309  and  _310
REMARK  134  A    between atoms: _312  and  _314
REMARK  135  A    between atoms: _314  and  _315
REMARK  136  A    between atoms: _314  and  _317
REMARK  137  A    between atoms: _317  and  _318
REMARK  138  A    between atoms: _318  and  _319
REMARK                            x       y       z     vdW  Elec       q    Type
REMARK                         _______ _______ _______ _____ _____    ______ ____
ROOT
ATOM      1  CB  ASN A   1      64.823  49.512   9.785  0.00  0.00    +0.110 C 
ENDROOT
BRANCH   1   2
ATOM      2  CG  ASN A   1      66.168  49.101  10.401  0.00  0.00    +0.221 C 
ATOM      3  OD1 ASN A   1      66.366  49.226  11.617  0.00  0.00    -0.275 OA
ATOM      4  ND2 ASN A   1      67.087  48.620   9.573  0.00  0.00    -0.329 N 
ATOM      5 HD21 ASN A   1      68.016  48.331   9.939  0.00  0.00    +0.145 HD
ATOM      6 HD22 ASN A   1      66.878  48.532   8.558  0.00  0.00    +0.145 HD
ENDBRANCH   1   2
BRANCH   1   7
ATOM      7  CA  ASN A   1      64.490  48.749   8.503  0.00  0.00    +0.142 C 
BRANCH   7   8
ATOM      8  N   ASN A   1      63.295  49.322   7.867  0.00  0.00    -0.239 NA
ATOM      9  H   ASN A   1      62.411  49.377   8.412  0.00  0.00    +0.142 HD
ENDBRANCH   7   8
BRANCH   7  10
ATOM     10  C   ASN A   1      64.115  47.291   8.804  0.00  0.00    +0.225 C 
ATOM     11  O   ASN A   1      63.424  47.018   9.794  0.00  0.00    -0.287 OA
ENDBRANCH   7  10
ENDBRANCH   1   7
TORSDOF 4
REMARK  Name = ../refined-set-2016/1lan/1lan_pocket.pdb
REMARK  138 active torsions:
REMARK  status: ('A' for Active; 'I' for Inactive)
REMARK    1  A    between atoms: _1  and  _3
REMARK    2  A    between atoms: _3  and  _4
REMARK    3  A    between atoms: _3  and  _6
REMARK    4  A    between atoms: _6  and  _7
REMARK    5  A    between atoms: _7  and  _8
REMARK    6  A    between atoms: _8  and  _9
REMARK    7  A    between atoms: _9  and  _10
REMARK    8  A    between atoms: _14  and  _16
REMARK    9  A    between atoms: _16  and  _17
REMARK   10  A    between atoms: _16  and  _19
REMARK   11  A    between atoms: _19  and  _20
REMARK   12  A    between atoms: _23  and  _25
REMARK   13  A    between atoms: _25  and  _26
REMARK   14  A    between atoms: _25  and  _28
REMARK   15  A    between atoms: _28  and  _29
REMARK   16  A    between atoms: _35  and  _37
REMARK   17  A    between atoms: _37  and  _38
REMARK   18  A    between atoms: _37  and  _40
REMARK   19  A    between atoms: _40  and  _41
REMARK   20  A    between atoms: _41  and  _43
REMARK   21  A    between atoms: _43  and  ZN_321
REMARK   22  A    between atoms: _44  and  _46
REMARK   23  A    between atoms: _46  and  _47
REMARK   24  A    between atoms: _46  and  _49
REMARK   25  A    between atoms: _49  and  _50
REMARK   26  A    between atoms: _52  and  _54
REMARK   27  A    between atoms: _54  and  _55
REMARK   28  A    between atoms: _57  and  _59
REMARK   29  A    between atoms: _59  and  _60
REMARK   30  A    between atoms: _59  and  _62
REMARK   31  A    between atoms: _62  and  _63
REMARK   32  A    between atoms: _65  and  _67
REMARK   33  A    between atoms: _67  and  _68
REMARK   34  A    between atoms: _67  and  _70
REMARK   35  A    between atoms: _70  and  _71
REMARK   36  A    between atoms: _71  and  _72
REMARK   37  A    between atoms: _72  and  _73
REMARK   38  A    between atoms: _73  and  _74
REMARK   39  A    between atoms: _78  and  _80
REMARK   40  A    between atoms: _80  and  _81
REMARK   41  A    between atoms: _80  and  _83
REMARK   42  A    between atoms: _83  and  _84
REMARK   43  A    between atoms: _87  and  _89
REMARK   44  A    between atoms: _89  and  _90
REMARK   45  A    between atoms: _89  and  _92
REMARK   46  A    between atoms: _92  and  _93
REMARK   47  A    between atoms: _93  and  _94
REMARK   48  A    between atoms: _96  and  _98
REMARK   49  A    between atoms: _98  and  _99
REMARK   50  A    between atoms: _102  and  _104
REMARK   51  A    between atoms: _104  and  _105
REMARK   52  A    between atoms: _104  and  _107
REMARK   53  A    between atoms: _107  and  _108
REMARK   54  A    between atoms: _108  and  _110
REMARK   55  A    between atoms: _110  and  ZN_322
REMARK   56  A    between atoms: _111  and  _113
REMARK   57  A    between atoms: _113  and  _114
REMARK   58  A    between atoms: _113  and  _116
REMARK   59  A    between atoms: _116  and  _117
REMARK   60  A    between atoms: _117  and  _118
REMARK   61  A    between atoms: _120  and  _122
REMARK   62  A    between atoms: _122  and  _123
REMARK   63  A    between atoms: _125  and  _127
REMARK   64  A    between atoms: _127  and  _128
REMARK   65  A    between atoms: _127  and  _130
REMARK   66  A    between atoms: _130  and  _131
REMARK   67  A    between atoms: _136  and  _138
REMARK   68  A    between atoms: _138  and  _139
REMARK   69  A    between atoms: _138  and  _141
REMARK   70  A    between atoms: _141  and  _142
REMARK   71  A    between atoms: _147  and  _149
REMARK   72  A    between atoms: _149  and  _150
REMARK   73  A    between atoms: _149  and  _152
REMARK   74  A    between atoms: _152  and  _153
REMARK   75  A    between atoms: _156  and  _158
REMARK   76  A    between atoms: _173  and  _174
REMARK   77  A    between atoms: _178  and  _180
REMARK   78  A    between atoms: _180  and  ZN_322
REMARK   79  A    between atoms: _181  and  _183
REMARK   80  A    between atoms: _183  and  _184
REMARK   81  A    between atoms: _186  and  _188
REMARK   82  A    between atoms: _188  and  _189
REMARK   83  A    between atoms: _188  and  _191
REMARK   84  A    between atoms: _191  and  _192
REMARK   85  A    between atoms: _192  and  _193
REMARK   86  A    between atoms: _193  and  _194
REMARK   87  A    between atoms: _203  and  _205
REMARK   88  A    between atoms: _205  and  _206
REMARK   89  A    between atoms: _205  and  _208
REMARK   90  A    between atoms: _208  and  _209
REMARK   91  A    between atoms: _212  and  _214
REMARK   92  A    between atoms: _214  and  _215
REMARK   93  A    between atoms: _218  and  _220
REMARK   94  A    between atoms: _220  and  _221
REMARK   95  A    between atoms: _220  and  _223
REMARK   96  A    between atoms: _223  and  _224
REMARK   97  A    between atoms: _227  and  _229
REMARK   98  A    between atoms: _229  and  _230
REMARK   99  A    between atoms: _229  and  _232
REMARK  100  A    between atoms: _232  and  _233
REMARK  101  A    between atoms: _236  and  _238
REMARK  102  A    between atoms: _238  and  _239
REMARK  103  A    between atoms: _238  and  _241
REMARK  104  A    between atoms: _241  and  _242
REMARK  105  A    between atoms: _245  and  _247
REMARK  106  A    between atoms: _247  and  _248
REMARK  107  A    between atoms: _250  and  _252
REMARK  108  A    between atoms: _252  and  _253
REMARK  109  A    between atoms: _256  and  _258
REMARK  110  A    between atoms: _258  and  _259
REMARK  111  A    between atoms: _258  and  _261
REMARK  112  A    between atoms: _261  and  _262
REMARK  113  A    between atoms: _262  and  _263
REMARK  114  A    between atoms: _265  and  _267
REMARK  115  A    between atoms: _267  and  _268
REMARK  116  A    between atoms: _267  and  _270
REMARK  117  A    between atoms: _270  and  _271
REMARK  118  A    between atoms: _274  and  _276
REMARK  119  A    between atoms: _276  and  _277
REMARK  120  A    between atoms: _276  and  _279
REMARK  121  A    between atoms: _279  and  _280
REMARK  122  A    between atoms: _283  and  _285
REMARK  123  A    between atoms: _285  and  _286
REMARK  124  A    between atoms: _285  and  _288
REMARK  125  A    between atoms: _288  and  _289
REMARK  126  A    between atoms: _292  and  _294
REMARK  127  A    between atoms: _294  and  _295
REMARK  128  A    between atoms: _294  and  _297
REMARK  129  A    between atoms: _297  and  _298
REMARK  130  A    between atoms: _301  and  _303
REMARK  131  A    between atoms: _303  and  _304
REMARK  132  A    between atoms: _307  and  _309
REMARK  133  A    between atoms: _309  and  _310
REMARK  134  A    between atoms: _312  and  _314
REMARK  135  A    between atoms: _314  and  _315
REMARK  136  A    between atoms: _314  and  _317
REMARK  137  A    between atoms: _317  and  _318
REMARK  138  A    between atoms: _318  and  _319
REMARK                            x       y       z     vdW  Elec       q    Type
REMARK                         _______ _______ _______ _____ _____    ______ ____
ROOT
ATOM      1  CA  GLY A   5      63.544  55.132  23.571  0.00  0.00    +0.176 C 
ENDROOT
BRANCH   1   3
ATOM      2  C   THR A   4      64.254  56.831  22.002  0.00  0.00    +0.243 C 
ATOM      3  N   GLY A   5      64.400  55.601  22.496  0.00  0.00    -0.295 N 
ATOM      4  H   GLY A   5      65.133  54.973  22.108  0.00  0.00    +0.150 HD
ATOM      5  O   THR A   4      63.387  57.625  22.386  0.00  0.00    -0.273 OA
BRANCH   2   6
ATOM      6  CA  THR A   4      65.257  57.239  20.959  0.00  0.00    +0.176 C 
BRANCH   6   8
ATOM      7  C   LEU A   3      64.968  57.823  18.659  0.00  0.00    +0.241 C 
ATOM      8  N   THR A   4      64.750  58.135  19.929  0.00  0.00    -0.295 N 
ATOM      9  H   THR A   4      64.230  58.999  20.183  0.00  0.00    +0.150 HD
ATOM     10  O   LEU A   3      65.509  56.778  18.330  0.00  0.00    -0.273 OA
BRANCH   7  11
ATOM     11  CA  LEU A   3      64.532  58.801  17.585  0.00  0.00    +0.149 C 
BRANCH  11  13
ATOM     12  C   THR A   2      62.192  58.714  16.937  0.00  0.00    +0.243 C 
ATOM     13  N   LEU A   3      63.196  59.370  17.514  0.00  0.00    -0.297 N 
ATOM     14  H   LEU A   3      63.021  60.310  17.923  0.00  0.00    +0.150 HD
ATOM     15  O   THR A   2      62.289  57.546  16.546  0.00  0.00    -0.273 OA
BRANCH  12  16
ATOM     16  CA  THR A   2      60.888  59.511  16.774  0.00  0.00    +0.176 C 
BRANCH  16  19
ATOM     17  C   ALA A   1      61.984  61.545  15.889  0.00  0.00    +0.238 C 
ATOM     18  O   ALA A   1      62.144  62.037  17.008  0.00  0.00    -0.274 OA
ATOM     19  N   THR A   2      61.334  60.398  15.679  0.00  0.00    -0.295 N 
ATOM     20  H   THR A   2      61.132  60.115  14.699  0.00  0.00    +0.150 HD
BRANCH  17  21
ATOM     21  CA  ALA A   1      62.447  62.288  14.646  0.00  0.00    +0.145 C 
ATOM     22  CB  ALA A   1      63.917  61.946  14.363  0.00  0.00    +0.028 C 
BRANCH  21  23
ATOM     23  N   ALA A   1      62.295  63.742  14.748  0.00  0.00    -0.238 NA
ATOM     24  H   ALA A   1      62.191  64.183  15.684  0.00  0.00    +0.142 HD
ENDBRANCH  21  23
ENDBRANCH  17  21
ENDBRANCH  16  19
BRANCH  16  25
ATOM     25  CB  THR A   2      59.763  58.551  16.286  0.00  0.00    +0.137 C 
ATOM     26  CG2 THR A   2      58.428  59.292  16.104  0.00  0.00    +0.034 C 
BRANCH  25  27
ATOM     27  OG1 THR A   2      60.142  57.994  15.024  0.00  0.00    -0.382 OA
ATOM     28  HG1 THR A   2      60.989  57.492  15.127  0.00  0.00    +0.210 HD
ENDBRANCH  25  27
ENDBRANCH  16  25
ENDBRANCH  12  16
ENDBRANCH  11  13
BRANCH  11  29
ATOM     29  CB  LEU A   3      65.559  59.937  17.463  0.00  0.00    +0.029 C 
BRANCH  29  30
ATOM     30  CG  LEU A   3      66.979  59.637  16.957  0.00  0.00    +0.002 C 
ATOM     31  CD2 LEU A   3      67.838  60.897  17.029  0.00  0.00    +0.000 C 
ATOM     32  CD1 LEU A   3      66.925  59.134  15.509  0.00  0.00    +0.000 C 
ENDBRANCH  29  30
ENDBRANCH  11  29
ENDBRANCH   7  11
ENDBRANCH   6   8
BRANCH   6  33
ATOM     33  CB  THR A   4      66.443  57.898  21.712  0.00  0.00    +0.137 C 
ATOM     34  CG2 THR A   4      67.553  58.324  20.746  0.00  0.00    +0.034 C 
BRANCH  33  35
ATOM     35  OG1 THR A   4      65.978  59.065  22.408  0.00  0.00    -0.382 OA
ATOM     36  HG1 THR A   4      65.601  59.708  21.756  0.00  0.00    +0.210 HD
ENDBRANCH  33  35
ENDBRANCH   6  33
ENDBRANCH   2   6
ENDBRANCH   1   3
BRANCH   1  37
ATOM     37  C   GLY A   5      63.916  55.935  24.817  0.00  0.00    +0.243 C 
ATOM     38  O   GLY A   5      63.073  56.188  25.690  0.00  0.00    -0.273 OA
ATOM     39  N   ALA A   6      65.172  56.387  24.874  0.00  0.00    -0.297 N 
ATOM     40  H   ALA A   6      65.821  56.168  24.092  0.00  0.00    +0.150 HD
BRANCH  39  41
ATOM     41  CA  ALA A   6      65.666  57.183  26.004  0.00  0.00    +0.149 C 
ATOM     42  CB  ALA A   6      67.175  57.468  25.852  0.00  0.00    +0.031 C 
BRANCH  41  43
ATOM     43  C   ALA A   6      64.895  58.496  26.194  0.00  0.00    +0.241 C 
ATOM     44  O   ALA A   6      64.729  58.958  27.315  0.00  0.00    -0.273 OA
ATOM     45  N   MET A   7      64.429  59.104  25.106  0.00  0.00    -0.297 N 
ATOM     46  H   MET A   7      64.606  58.688  24.169  0.00  0.00    +0.150 HD
BRANCH  45  47
ATOM     47  CA  MET A   7      63.672  60.349  25.212  0.00  0.00    +0.149 C 
BRANCH  47  48
ATOM     48  C   MET A   7      62.347  60.061  25.913  0.00  0.00    +0.241 C 
ATOM     49  O   MET A   7      61.904  60.847  26.749  0.00  0.00    -0.273 OA
ATOM     50  N   ASP A   8      61.721  58.930  25.594  0.00  0.00    -0.297 N 
ATOM     51  H   ASP A   8      62.133  58.291  24.884  0.00  0.00    +0.150 HD
BRANCH  50  52
ATOM     52  CA  ASP A   8      60.455  58.584  26.241  0.00  0.00    +0.160 C 
BRANCH  52  53
ATOM     53  C   ASP A   8      60.701  58.359  27.739  0.00  0.00    +0.241 C 
ATOM     54  O   ASP A   8      59.945  58.834  28.589  0.00  0.00    -0.273 OA
ATOM     55  N   ILE A   9      61.786  57.672  28.062  0.00  0.00    -0.298 N 
ATOM     56  H   ILE A   9      62.390  57.285  27.309  0.00  0.00    +0.150 HD
BRANCH  55  57
ATOM     57  CA  ILE A   9      62.147  57.449  29.458  0.00  0.00    +0.137 C 
BRANCH  57  58
ATOM     58  CB  ILE A   9      63.392  56.525  29.571  0.00  0.00    +0.026 C 
ATOM     59  CG2 ILE A   9      63.863  56.417  31.008  0.00  0.00    +0.002 C 
BRANCH  58  60
ATOM     60  CG1 ILE A   9      63.088  55.135  29.005  0.00  0.00    +0.002 C 
ATOM     61  CD1 ILE A   9      61.853  54.479  29.611  0.00  0.00    +0.000 C 
ENDBRANCH  58  60
ENDBRANCH  57  58
BRANCH  57  62
ATOM     62  C   ILE A   9      62.433  58.801  30.133  0.00  0.00    +0.227 C 
ATOM     63  O   ILE A   9      62.076  58.996  31.285  0.00  0.00    -0.286 OA
ENDBRANCH  57  62
ENDBRANCH  55  57
ENDBRANCH  52  53
BRANCH  52  64
ATOM     64  CB  ASP A   8      59.819  57.350  25.592  0.00  0.00    +0.143 C 
BRANCH  64  65
ATOM     65  CG  ASP A   8      58.485  56.995  26.224  0.00  0.00    +0.367 C 
ATOM     66  OD2 ASP A   8      58.349  55.889  26.775  0.00  0.00    -0.246 OA
ATOM     67  OD1 ASP A   8      57.578  57.852  26.229  0.00  0.00    -0.246 OA
ENDBRANCH  64  65
ENDBRANCH  52  64
ENDBRANCH  50  52
ENDBRANCH  47  48
BRANCH  47  68
ATOM     68  CB  MET A   7      63.388  60.968  23.828  0.00  0.00    +0.041 C 
BRANCH  68  69
ATOM     69  CG  MET A   7      62.751  62.382  23.881  0.00  0.00    +0.060 C 
BRANCH  69  70
ATOM     70  SD  MET A   7      63.952  63.637  24.494  0.00  0.00    -0.139 S 
ATOM     71  CE  MET A   7      63.135  64.212  25.836  0.00  0.00    +0.069 C 
ENDBRANCH  69  70
ENDBRANCH  68  69
ENDBRANCH  47  68
ENDBRANCH  45  47
ENDBRANCH  41  43
ENDBRANCH  39  41
ENDBRANCH   1  37
TORSDOF 31
REMARK  Name = ../refined-set-2016/1lan/1lan_pocket.pdb
REMARK  138 active torsions:
REMARK  status: ('A' for Active; 'I' for Inactive)
REMARK    1  A    between atoms: _1  and  _3
REMARK    2  A    between atoms: _3  and  _4
REMARK    3  A    between atoms: _3  and  _6
REMARK    4  A    between atoms: _6  and  _7
REMARK    5  A    between atoms: _7  and  _8
REMARK    6  A    between atoms: _8  and  _9
REMARK    7  A    between atoms: _9  and  _10
REMARK    8  A    between atoms: _14  and  _16
REMARK    9  A    between atoms: _16  and  _17
REMARK   10  A    between atoms: _16  and  _19
REMARK   11  A    between atoms: _19  and  _20
REMARK   12  A    between atoms: _23  and  _25
REMARK   13  A    between atoms: _25  and  _26
REMARK   14  A    between atoms: _25  and  _28
REMARK   15  A    between atoms: _28  and  _29
REMARK   16  A    between atoms: _35  and  _37
REMARK   17  A    between atoms: _37  and  _38
REMARK   18  A    between atoms: _37  and  _40
REMARK   19  A    between atoms: _40  and  _41
REMARK   20  A    between atoms: _41  and  _43
REMARK   21  A    between atoms: _43  and  ZN_321
REMARK   22  A    between atoms: _44  and  _46
REMARK   23  A    between atoms: _46  and  _47
REMARK   24  A    between atoms: _46  and  _49
REMARK   25  A    between atoms: _49  and  _50
REMARK   26  A    between atoms: _52  and  _54
REMARK   27  A    between atoms: _54  and  _55
REMARK   28  A    between atoms: _57  and  _59
REMARK   29  A    between atoms: _59  and  _60
REMARK   30  A    between atoms: _59  and  _62
REMARK   31  A    between atoms: _62  and  _63
REMARK   32  A    between atoms: _65  and  _67
REMARK   33  A    between atoms: _67  and  _68
REMARK   34  A    between atoms: _67  and  _70
REMARK   35  A    between atoms: _70  and  _71
REMARK   36  A    between atoms: _71  and  _72
REMARK   37  A    between atoms: _72  and  _73
REMARK   38  A    between atoms: _73  and  _74
REMARK   39  A    between atoms: _78  and  _80
REMARK   40  A    between atoms: _80  and  _81
REMARK   41  A    between atoms: _80  and  _83
REMARK   42  A    between atoms: _83  and  _84
REMARK   43  A    between atoms: _87  and  _89
REMARK   44  A    between atoms: _89  and  _90
REMARK   45  A    between atoms: _89  and  _92
REMARK   46  A    between atoms: _92  and  _93
REMARK   47  A    between atoms: _93  and  _94
REMARK   48  A    between atoms: _96  and  _98
REMARK   49  A    between atoms: _98  and  _99
REMARK   50  A    between atoms: _102  and  _104
REMARK   51  A    between atoms: _104  and  _105
REMARK   52  A    between atoms: _104  and  _107
REMARK   53  A    between atoms: _107  and  _108
REMARK   54  A    between atoms: _108  and  _110
REMARK   55  A    between atoms: _110  and  ZN_322
REMARK   56  A    between atoms: _111  and  _113
REMARK   57  A    between atoms: _113  and  _114
REMARK   58  A    between atoms: _113  and  _116
REMARK   59  A    between atoms: _116  and  _117
REMARK   60  A    between atoms: _117  and  _118
REMARK   61  A    between atoms: _120  and  _122
REMARK   62  A    between atoms: _122  and  _123
REMARK   63  A    between atoms: _125  and  _127
REMARK   64  A    between atoms: _127  and  _128
REMARK   65  A    between atoms: _127  and  _130
REMARK   66  A    between atoms: _130  and  _131
REMARK   67  A    between atoms: _136  and  _138
REMARK   68  A    between atoms: _138  and  _139
REMARK   69  A    between atoms: _138  and  _141
REMARK   70  A    between atoms: _141  and  _142
REMARK   71  A    between atoms: _147  and  _149
REMARK   72  A    between atoms: _149  and  _150
REMARK   73  A    between atoms: _149  and  _152
REMARK   74  A    between atoms: _152  and  _153
REMARK   75  A    between atoms: _156  and  _158
REMARK   76  A    between atoms: _173  and  _174
REMARK   77  A    between atoms: _178  and  _180
REMARK   78  A    between atoms: _180  and  ZN_322
REMARK   79  A    between atoms: _181  and  _183
REMARK   80  A    between atoms: _183  and  _184
REMARK   81  A    between atoms: _186  and  _188
REMARK   82  A    between atoms: _188  and  _189
REMARK   83  A    between atoms: _188  and  _191
REMARK   84  A    between atoms: _191  and  _192
REMARK   85  A    between atoms: _192  and  _193
REMARK   86  A    between atoms: _193  and  _194
REMARK   87  A    between atoms: _203  and  _205
REMARK   88  A    between atoms: _205  and  _206
REMARK   89  A    between atoms: _205  and  _208
REMARK   90  A    between atoms: _208  and  _209
REMARK   91  A    between atoms: _212  and  _214
REMARK   92  A    between atoms: _214  and  _215
REMARK   93  A    between atoms: _218  and  _220
REMARK   94  A    between atoms: _220  and  _221
REMARK   95  A    between atoms: _220  and  _223
REMARK   96  A    between atoms: _223  and  _224
REMARK   97  A    between atoms: _227  and  _229
REMARK   98  A    between atoms: _229  and  _230
REMARK   99  A    between atoms: _229  and  _232
REMARK  100  A    between atoms: _232  and  _233
REMARK  101  A    between atoms: _236  and  _238
REMARK  102  A    between atoms: _238  and  _239
REMARK  103  A    between atoms: _238  and  _241
REMARK  104  A    between atoms: _241  and  _242
REMARK  105  A    between atoms: _245  and  _247
REMARK  106  A    between atoms: _247  and  _248
REMARK  107  A    between atoms: _250  and  _252
REMARK  108  A    between atoms: _252  and  _253
REMARK  109  A    between atoms: _256  and  _258
REMARK  110  A    between atoms: _258  and  _259
REMARK  111  A    between atoms: _258  and  _261
REMARK  112  A    between atoms: _261  and  _262
REMARK  113  A    between atoms: _262  and  _263
REMARK  114  A    between atoms: _265  and  _267
REMARK  115  A    between atoms: _267  and  _268
REMARK  116  A    between atoms: _267  and  _270
REMARK  117  A    between atoms: _270  and  _271
REMARK  118  A    between atoms: _274  and  _276
REMARK  119  A    between atoms: _276  and  _277
REMARK  120  A    between atoms: _276  and  _279
REMARK  121  A    between atoms: _279  and  _280
REMARK  122  A    between atoms: _283  and  _285
REMARK  123  A    between atoms: _285  and  _286
REMARK  124  A    between atoms: _285  and  _288
REMARK  125  A    between atoms: _288  and  _289
REMARK  126  A    between atoms: _292  and  _294
REMARK  127  A    between atoms: _294  and  _295
REMARK  128  A    between atoms: _294  and  _297
REMARK  129  A    between atoms: _297  and  _298
REMARK  130  A    between atoms: _301  and  _303
REMARK  131  A    between atoms: _303  and  _304
REMARK  132  A    between atoms: _307  and  _309
REMARK  133  A    between atoms: _309  and  _310
REMARK  134  A    between atoms: _312  and  _314
REMARK  135  A    between atoms: _314  and  _315
REMARK  136  A    between atoms: _314  and  _317
REMARK  137  A    between atoms: _317  and  _318
REMARK  138  A    between atoms: _318  and  _319
REMARK                            x       y       z     vdW  Elec       q    Type
REMARK                         _______ _______ _______ _____ _____    ______ ____
ROOT
ATOM      1  CA  ILE A   2      59.394  63.162  19.437  0.00  0.00    +0.148 C 
ENDROOT
BRANCH   1   4
ATOM      2  C   ASP A   1      61.689  63.872  19.974  0.00  0.00    +0.239 C 
ATOM      3  O   ASP A   1      61.396  64.223  21.106  0.00  0.00    -0.274 OA
ATOM      4  N   ILE A   2      60.815  63.329  19.125  0.00  0.00    -0.297 N 
ATOM      5  H   ILE A   2      61.159  63.009  18.197  0.00  0.00    +0.150 HD
BRANCH   2   6
ATOM      6  CA  ASP A   1      63.119  64.024  19.447  0.00  0.00    +0.156 C 
BRANCH   6   7
ATOM      7  N   ASP A   1      63.289  65.466  19.241  0.00  0.00    -0.238 NA
ATOM      8  H   ASP A   1      63.550  66.068  20.048  0.00  0.00    +0.142 HD
ENDBRANCH   6   7
BRANCH   6   9
ATOM      9  CB  ASP A   1      64.143  63.463  20.455  0.00  0.00    +0.140 C 
BRANCH   9  10
ATOM     10  CG  ASP A   1      64.204  61.929  20.449  0.00  0.00    +0.367 C 
ATOM     11  OD2 ASP A   1      65.235  61.369  20.880  0.00  0.00    -0.246 OA
ATOM     12  OD1 ASP A   1      63.217  61.278  20.020  0.00  0.00    -0.246 OA
ENDBRANCH   9  10
ENDBRANCH   6   9
ENDBRANCH   2   6
ENDBRANCH   1   4
BRANCH   1  13
ATOM     13  C   ILE A   2      58.945  61.739  19.783  0.00  0.00    +0.241 C 
ATOM     14  N   ALA A   3      59.903  60.871  20.126  0.00  0.00    -0.297 N 
ATOM     15  H   ALA A   3      60.890  61.197  20.141  0.00  0.00    +0.150 HD
ATOM     16  O   ILE A   2      57.747  61.445  19.779  0.00  0.00    -0.273 OA
BRANCH  14  17
ATOM     17  CA  ALA A   3      59.615  59.475  20.482  0.00  0.00    +0.149 C 
ATOM     18  CB  ALA A   3      60.909  58.717  20.791  0.00  0.00    +0.031 C 
BRANCH  17  19
ATOM     19  C   ALA A   3      58.633  59.355  21.658  0.00  0.00    +0.241 C 
ATOM     20  N   GLY A   4      58.749  60.252  22.632  0.00  0.00    -0.296 N 
ATOM     21  H   GLY A   4      59.488  60.981  22.570  0.00  0.00    +0.150 HD
ATOM     22  O   ALA A   3      57.748  58.504  21.650  0.00  0.00    -0.273 OA
BRANCH  20  23
ATOM     23  CA  GLY A   4      57.862  60.231  23.779  0.00  0.00    +0.163 C 
BRANCH  23  24
ATOM     24  C   GLY A   4      56.453  60.765  23.533  0.00  0.00    +0.229 C 
ATOM     25  O   GLY A   4      55.539  60.439  24.282  0.00  0.00    -0.286 OA
ENDBRANCH  23  24
ENDBRANCH  20  23
ENDBRANCH  17  19
ENDBRANCH  14  17
ENDBRANCH   1  13
BRANCH   1  26
ATOM     26  CB  ILE A   2      58.528  63.704  18.265  0.00  0.00    +0.027 C 
ATOM     27  CG2 ILE A   2      58.919  65.164  17.946  0.00  0.00    +0.002 C 
BRANCH  26  28
ATOM     28  CG1 ILE A   2      58.737  62.853  17.012  0.00  0.00    +0.002 C 
ATOM     29  CD1 ILE A   2      57.689  63.059  15.948  0.00  0.00    +0.000 C 
ENDBRANCH  26  28
ENDBRANCH   1  26
TORSDOF 12
REMARK  Name = ../refined-set-2016/1lan/1lan_pocket.pdb
REMARK  138 active torsions:
REMARK  status: ('A' for Active; 'I' for Inactive)
REMARK    1  A    between atoms: _1  and  _3
REMARK    2  A    between atoms: _3  and  _4
REMARK    3  A    between atoms: _3  and  _6
REMARK    4  A    between atoms: _6  and  _7
REMARK    5  A    between atoms: _7  and  _8
REMARK    6  A    between atoms: _8  and  _9
REMARK    7  A    between atoms: _9  and  _10
REMARK    8  A    between atoms: _14  and  _16
REMARK    9  A    between atoms: _16  and  _17
REMARK   10  A    between atoms: _16  and  _19
REMARK   11  A    between atoms: _19  and  _20
REMARK   12  A    between atoms: _23  and  _25
REMARK   13  A    between atoms: _25  and  _26
REMARK   14  A    between atoms: _25  and  _28
REMARK   15  A    between atoms: _28  and  _29
REMARK   16  A    between atoms: _35  and  _37
REMARK   17  A    between atoms: _37  and  _38
REMARK   18  A    between atoms: _37  and  _40
REMARK   19  A    between atoms: _40  and  _41
REMARK   20  A    between atoms: _41  and  _43
REMARK   21  A    between atoms: _43  and  ZN_321
REMARK   22  A    between atoms: _44  and  _46
REMARK   23  A    between atoms: _46  and  _47
REMARK   24  A    between atoms: _46  and  _49
REMARK   25  A    between atoms: _49  and  _50
REMARK   26  A    between atoms: _52  and  _54
REMARK   27  A    between atoms: _54  and  _55
REMARK   28  A    between atoms: _57  and  _59
REMARK   29  A    between atoms: _59  and  _60
REMARK   30  A    between atoms: _59  and  _62
REMARK   31  A    between atoms: _62  and  _63
REMARK   32  A    between atoms: _65  and  _67
REMARK   33  A    between atoms: _67  and  _68
REMARK   34  A    between atoms: _67  and  _70
REMARK   35  A    between atoms: _70  and  _71
REMARK   36  A    between atoms: _71  and  _72
REMARK   37  A    between atoms: _72  and  _73
REMARK   38  A    between atoms: _73  and  _74
REMARK   39  A    between atoms: _78  and  _80
REMARK   40  A    between atoms: _80  and  _81
REMARK   41  A    between atoms: _80  and  _83
REMARK   42  A    between atoms: _83  and  _84
REMARK   43  A    between atoms: _87  and  _89
REMARK   44  A    between atoms: _89  and  _90
REMARK   45  A    between atoms: _89  and  _92
REMARK   46  A    between atoms: _92  and  _93
REMARK   47  A    between atoms: _93  and  _94
REMARK   48  A    between atoms: _96  and  _98
REMARK   49  A    between atoms: _98  and  _99
REMARK   50  A    between atoms: _102  and  _104
REMARK   51  A    between atoms: _104  and  _105
REMARK   52  A    between atoms: _104  and  _107
REMARK   53  A    between atoms: _107  and  _108
REMARK   54  A    between atoms: _108  and  _110
REMARK   55  A    between atoms: _110  and  ZN_322
REMARK   56  A    between atoms: _111  and  _113
REMARK   57  A    between atoms: _113  and  _114
REMARK   58  A    between atoms: _113  and  _116
REMARK   59  A    between atoms: _116  and  _117
REMARK   60  A    between atoms: _117  and  _118
REMARK   61  A    between atoms: _120  and  _122
REMARK   62  A    between atoms: _122  and  _123
REMARK   63  A    between atoms: _125  and  _127
REMARK   64  A    between atoms: _127  and  _128
REMARK   65  A    between atoms: _127  and  _130
REMARK   66  A    between atoms: _130  and  _131
REMARK   67  A    between atoms: _136  and  _138
REMARK   68  A    between atoms: _138  and  _139
REMARK   69  A    between atoms: _138  and  _141
REMARK   70  A    between atoms: _141  and  _142
REMARK   71  A    between atoms: _147  and  _149
REMARK   72  A    between atoms: _149  and  _150
REMARK   73  A    between atoms: _149  and  _152
REMARK   74  A    between atoms: _152  and  _153
REMARK   75  A    between atoms: _156  and  _158
REMARK   76  A    between atoms: _173  and  _174
REMARK   77  A    between atoms: _178  and  _180
REMARK   78  A    between atoms: _180  and  ZN_322
REMARK   79  A    between atoms: _181  and  _183
REMARK   80  A    between atoms: _183  and  _184
REMARK   81  A    between atoms: _186  and  _188
REMARK   82  A    between atoms: _188  and  _189
REMARK   83  A    between atoms: _188  and  _191
REMARK   84  A    between atoms: _191  and  _192
REMARK   85  A    between atoms: _192  and  _193
REMARK   86  A    between atoms: _193  and  _194
REMARK   87  A    between atoms: _203  and  _205
REMARK   88  A    between atoms: _205  and  _206
REMARK   89  A    between atoms: _205  and  _208
REMARK   90  A    between atoms: _208  and  _209
REMARK   91  A    between atoms: _212  and  _214
REMARK   92  A    between atoms: _214  and  _215
REMARK   93  A    between atoms: _218  and  _220
REMARK   94  A    between atoms: _220  and  _221
REMARK   95  A    between atoms: _220  and  _223
REMARK   96  A    between atoms: _223  and  _224
REMARK   97  A    between atoms: _227  and  _229
REMARK   98  A    between atoms: _229  and  _230
REMARK   99  A    between atoms: _229  and  _232
REMARK  100  A    between atoms: _232  and  _233
REMARK  101  A    between atoms: _236  and  _238
REMARK  102  A    between atoms: _238  and  _239
REMARK  103  A    between atoms: _238  and  _241
REMARK  104  A    between atoms: _241  and  _242
REMARK  105  A    between atoms: _245  and  _247
REMARK  106  A    between atoms: _247  and  _248
REMARK  107  A    between atoms: _250  and  _252
REMARK  108  A    between atoms: _252  and  _253
REMARK  109  A    between atoms: _256  and  _258
REMARK  110  A    between atoms: _258  and  _259
REMARK  111  A    between atoms: _258  and  _261
REMARK  112  A    between atoms: _261  and  _262
REMARK  113  A    between atoms: _262  and  _263
REMARK  114  A    between atoms: _265  and  _267
REMARK  115  A    between atoms: _267  and  _268
REMARK  116  A    between atoms: _267  and  _270
REMARK  117  A    between atoms: _270  and  _271
REMARK  118  A    between atoms: _274  and  _276
REMARK  119  A    between atoms: _276  and  _277
REMARK  120  A    between atoms: _276  and  _279
REMARK  121  A    between atoms: _279  and  _280
REMARK  122  A    between atoms: _283  and  _285
REMARK  123  A    between atoms: _285  and  _286
REMARK  124  A    between atoms: _285  and  _288
REMARK  125  A    between atoms: _288  and  _289
REMARK  126  A    between atoms: _292  and  _294
REMARK  127  A    between atoms: _294  and  _295
REMARK  128  A    between atoms: _294  and  _297
REMARK  129  A    between atoms: _297  and  _298
REMARK  130  A    between atoms: _301  and  _303
REMARK  131  A    between atoms: _303  and  _304
REMARK  132  A    between atoms: _307  and  _309
REMARK  133  A    between atoms: _309  and  _310
REMARK  134  A    between atoms: _312  and  _314
REMARK  135  A    between atoms: _314  and  _315
REMARK  136  A    between atoms: _314  and  _317
REMARK  137  A    between atoms: _317  and  _318
REMARK  138  A    between atoms: _318  and  _319
REMARK                            x       y       z     vdW  Elec       q    Type
REMARK                         _______ _______ _______ _____ _____    ______ ____
ROOT
ATOM      1  CA  MET A   1      54.364  59.507  19.477  0.00  0.00    +0.134 C 
ENDROOT
BRANCH   1   2
ATOM      2  N   MET A   1      54.817  60.252  20.656  0.00  0.00    -0.239 NA
ATOM      3  H   MET A   1      55.535  59.824  21.275  0.00  0.00    +0.142 HD
ENDBRANCH   1   2
BRANCH   1   4
ATOM      4  C   MET A   1      52.903  59.079  19.623  0.00  0.00    +0.224 C 
ATOM      5  O   MET A   1      52.109  59.164  18.680  0.00  0.00    -0.287 OA
ENDBRANCH   1   4
BRANCH   1   6
ATOM      6  CB  MET A   1      55.270  58.285  19.205  0.00  0.00    +0.037 C 
BRANCH   6   7
ATOM      7  CG  MET A   1      55.076  57.659  17.815  0.00  0.00    +0.059 C 
BRANCH   7   8
ATOM      8  SD  MET A   1      56.103  56.192  17.429  0.00  0.00    -0.139 S 
ATOM      9  CE  MET A   1      55.260  54.976  18.389  0.00  0.00    +0.069 C 
ENDBRANCH   7   8
ENDBRANCH   6   7
ENDBRANCH   1   6
TORSDOF 5
REMARK  Name = ../refined-set-2016/1lan/1lan_pocket.pdb
REMARK  138 active torsions:
REMARK  status: ('A' for Active; 'I' for Inactive)
REMARK    1  A    between atoms: _1  and  _3
REMARK    2  A    between atoms: _3  and  _4
REMARK    3  A    between atoms: _3  and  _6
REMARK    4  A    between atoms: _6  and  _7
REMARK    5  A    between atoms: _7  and  _8
REMARK    6  A    between atoms: _8  and  _9
REMARK    7  A    between atoms: _9  and  _10
REMARK    8  A    between atoms: _14  and  _16
REMARK    9  A    between atoms: _16  and  _17
REMARK   10  A    between atoms: _16  and  _19
REMARK   11  A    between atoms: _19  and  _20
REMARK   12  A    between atoms: _23  and  _25
REMARK   13  A    between atoms: _25  and  _26
REMARK   14  A    between atoms: _25  and  _28
REMARK   15  A    between atoms: _28  and  _29
REMARK   16  A    between atoms: _35  and  _37
REMARK   17  A    between atoms: _37  and  _38
REMARK   18  A    between atoms: _37  and  _40
REMARK   19  A    between atoms: _40  and  _41
REMARK   20  A    between atoms: _41  and  _43
REMARK   21  A    between atoms: _43  and  ZN_321
REMARK   22  A    between atoms: _44  and  _46
REMARK   23  A    between atoms: _46  and  _47
REMARK   24  A    between atoms: _46  and  _49
REMARK   25  A    between atoms: _49  and  _50
REMARK   26  A    between atoms: _52  and  _54
REMARK   27  A    between atoms: _54  and  _55
REMARK   28  A    between atoms: _57  and  _59
REMARK   29  A    between atoms: _59  and  _60
REMARK   30  A    between atoms: _59  and  _62
REMARK   31  A    between atoms: _62  and  _63
REMARK   32  A    between atoms: _65  and  _67
REMARK   33  A    between atoms: _67  and  _68
REMARK   34  A    between atoms: _67  and  _70
REMARK   35  A    between atoms: _70  and  _71
REMARK   36  A    between atoms: _71  and  _72
REMARK   37  A    between atoms: _72  and  _73
REMARK   38  A    between atoms: _73  and  _74
REMARK   39  A    between atoms: _78  and  _80
REMARK   40  A    between atoms: _80  and  _81
REMARK   41  A    between atoms: _80  and  _83
REMARK   42  A    between atoms: _83  and  _84
REMARK   43  A    between atoms: _87  and  _89
REMARK   44  A    between atoms: _89  and  _90
REMARK   45  A    between atoms: _89  and  _92
REMARK   46  A    between atoms: _92  and  _93
REMARK   47  A    between atoms: _93  and  _94
REMARK   48  A    between atoms: _96  and  _98
REMARK   49  A    between atoms: _98  and  _99
REMARK   50  A    between atoms: _102  and  _104
REMARK   51  A    between atoms: _104  and  _105
REMARK   52  A    between atoms: _104  and  _107
REMARK   53  A    between atoms: _107  and  _108
REMARK   54  A    between atoms: _108  and  _110
REMARK   55  A    between atoms: _110  and  ZN_322
REMARK   56  A    between atoms: _111  and  _113
REMARK   57  A    between atoms: _113  and  _114
REMARK   58  A    between atoms: _113  and  _116
REMARK   59  A    between atoms: _116  and  _117
REMARK   60  A    between atoms: _117  and  _118
REMARK   61  A    between atoms: _120  and  _122
REMARK   62  A    between atoms: _122  and  _123
REMARK   63  A    between atoms: _125  and  _127
REMARK   64  A    between atoms: _127  and  _128
REMARK   65  A    between atoms: _127  and  _130
REMARK   66  A    between atoms: _130  and  _131
REMARK   67  A    between atoms: _136  and  _138
REMARK   68  A    between atoms: _138  and  _139
REMARK   69  A    between atoms: _138  and  _141
REMARK   70  A    between atoms: _141  and  _142
REMARK   71  A    between atoms: _147  and  _149
REMARK   72  A    between atoms: _149  and  _150
REMARK   73  A    between atoms: _149  and  _152
REMARK   74  A    between atoms: _152  and  _153
REMARK   75  A    between atoms: _156  and  _158
REMARK   76  A    between atoms: _173  and  _174
REMARK   77  A    between atoms: _178  and  _180
REMARK   78  A    between atoms: _180  and  ZN_322
REMARK   79  A    between atoms: _181  and  _183
REMARK   80  A    between atoms: _183  and  _184
REMARK   81  A    between atoms: _186  and  _188
REMARK   82  A    between atoms: _188  and  _189
REMARK   83  A    between atoms: _188  and  _191
REMARK   84  A    between atoms: _191  and  _192
REMARK   85  A    between atoms: _192  and  _193
REMARK   86  A    between atoms: _193  and  _194
REMARK   87  A    between atoms: _203  and  _205
REMARK   88  A    between atoms: _205  and  _206
REMARK   89  A    between atoms: _205  and  _208
REMARK   90  A    between atoms: _208  and  _209
REMARK   91  A    between atoms: _212  and  _214
REMARK   92  A    between atoms: _214  and  _215
REMARK   93  A    between atoms: _218  and  _220
REMARK   94  A    between atoms: _220  and  _221
REMARK   95  A    between atoms: _220  and  _223
REMARK   96  A    between atoms: _223  and  _224
REMARK   97  A    between atoms: _227  and  _229
REMARK   98  A    between atoms: _229  and  _230
REMARK   99  A    between atoms: _229  and  _232
REMARK  100  A    between atoms: _232  and  _233
REMARK  101  A    between atoms: _236  and  _238
REMARK  102  A    between atoms: _238  and  _239
REMARK  103  A    between atoms: _238  and  _241
REMARK  104  A    between atoms: _241  and  _242
REMARK  105  A    between atoms: _245  and  _247
REMARK  106  A    between atoms: _247  and  _248
REMARK  107  A    between atoms: _250  and  _252
REMARK  108  A    between atoms: _252  and  _253
REMARK  109  A    between atoms: _256  and  _258
REMARK  110  A    between atoms: _258  and  _259
REMARK  111  A    between atoms: _258  and  _261
REMARK  112  A    between atoms: _261  and  _262
REMARK  113  A    between atoms: _262  and  _263
REMARK  114  A    between atoms: _265  and  _267
REMARK  115  A    between atoms: _267  and  _268
REMARK  116  A    between atoms: _267  and  _270
REMARK  117  A    between atoms: _270  and  _271
REMARK  118  A    between atoms: _274  and  _276
REMARK  119  A    between atoms: _276  and  _277
REMARK  120  A    between atoms: _276  and  _279
REMARK  121  A    between atoms: _279  and  _280
REMARK  122  A    between atoms: _283  and  _285
REMARK  123  A    between atoms: _285  and  _286
REMARK  124  A    between atoms: _285  and  _288
REMARK  125  A    between atoms: _288  and  _289
REMARK  126  A    between atoms: _292  and  _294
REMARK  127  A    between atoms: _294  and  _295
REMARK  128  A    between atoms: _294  and  _297
REMARK  129  A    between atoms: _297  and  _298
REMARK  130  A    between atoms: _301  and  _303
REMARK  131  A    between atoms: _303  and  _304
REMARK  132  A    between atoms: _307  and  _309
REMARK  133  A    between atoms: _309  and  _310
REMARK  134  A    between atoms: _312  and  _314
REMARK  135  A    between atoms: _314  and  _315
REMARK  136  A    between atoms: _314  and  _317
REMARK  137  A    between atoms: _317  and  _318
REMARK  138  A    between atoms: _318  and  _319
REMARK                            x       y       z     vdW  Elec       q    Type
REMARK                         _______ _______ _______ _____ _____    ______ ____
ROOT
ATOM      1  O   HOH     1      60.386  59.744  12.810  0.00  0.00    +0.000 OA
ENDROOT
TORSDOF 0
REMARK  Name = ../refined-set-2016/1lan/1lan_pocket.pdb
REMARK  138 active torsions:
REMARK  status: ('A' for Active; 'I' for Inactive)
REMARK    1  A    between atoms: _1  and  _3
REMARK    2  A    between atoms: _3  and  _4
REMARK    3  A    between atoms: _3  and  _6
REMARK    4  A    between atoms: _6  and  _7
REMARK    5  A    between atoms: _7  and  _8
REMARK    6  A    between atoms: _8  and  _9
REMARK    7  A    between atoms: _9  and  _10
REMARK    8  A    between atoms: _14  and  _16
REMARK    9  A    between atoms: _16  and  _17
REMARK   10  A    between atoms: _16  and  _19
REMARK   11  A    between atoms: _19  and  _20
REMARK   12  A    between atoms: _23  and  _25
REMARK   13  A    between atoms: _25  and  _26
REMARK   14  A    between atoms: _25  and  _28
REMARK   15  A    between atoms: _28  and  _29
REMARK   16  A    between atoms: _35  and  _37
REMARK   17  A    between atoms: _37  and  _38
REMARK   18  A    between atoms: _37  and  _40
REMARK   19  A    between atoms: _40  and  _41
REMARK   20  A    between atoms: _41  and  _43
REMARK   21  A    between atoms: _43  and  ZN_321
REMARK   22  A    between atoms: _44  and  _46
REMARK   23  A    between atoms: _46  and  _47
REMARK   24  A    between atoms: _46  and  _49
REMARK   25  A    between atoms: _49  and  _50
REMARK   26  A    between atoms: _52  and  _54
REMARK   27  A    between atoms: _54  and  _55
REMARK   28  A    between atoms: _57  and  _59
REMARK   29  A    between atoms: _59  and  _60
REMARK   30  A    between atoms: _59  and  _62
REMARK   31  A    between atoms: _62  and  _63
REMARK   32  A    between atoms: _65  and  _67
REMARK   33  A    between atoms: _67  and  _68
REMARK   34  A    between atoms: _67  and  _70
REMARK   35  A    between atoms: _70  and  _71
REMARK   36  A    between atoms: _71  and  _72
REMARK   37  A    between atoms: _72  and  _73
REMARK   38  A    between atoms: _73  and  _74
REMARK   39  A    between atoms: _78  and  _80
REMARK   40  A    between atoms: _80  and  _81
REMARK   41  A    between atoms: _80  and  _83
REMARK   42  A    between atoms: _83  and  _84
REMARK   43  A    between atoms: _87  and  _89
REMARK   44  A    between atoms: _89  and  _90
REMARK   45  A    between atoms: _89  and  _92
REMARK   46  A    between atoms: _92  and  _93
REMARK   47  A    between atoms: _93  and  _94
REMARK   48  A    between atoms: _96  and  _98
REMARK   49  A    between atoms: _98  and  _99
REMARK   50  A    between atoms: _102  and  _104
REMARK   51  A    between atoms: _104  and  _105
REMARK   52  A    between atoms: _104  and  _107
REMARK   53  A    between atoms: _107  and  _108
REMARK   54  A    between atoms: _108  and  _110
REMARK   55  A    between atoms: _110  and  ZN_322
REMARK   56  A    between atoms: _111  and  _113
REMARK   57  A    between atoms: _113  and  _114
REMARK   58  A    between atoms: _113  and  _116
REMARK   59  A    between atoms: _116  and  _117
REMARK   60  A    between atoms: _117  and  _118
REMARK   61  A    between atoms: _120  and  _122
REMARK   62  A    between atoms: _122  and  _123
REMARK   63  A    between atoms: _125  and  _127
REMARK   64  A    between atoms: _127  and  _128
REMARK   65  A    between atoms: _127  and  _130
REMARK   66  A    between atoms: _130  and  _131
REMARK   67  A    between atoms: _136  and  _138
REMARK   68  A    between atoms: _138  and  _139
REMARK   69  A    between atoms: _138  and  _141
REMARK   70  A    between atoms: _141  and  _142
REMARK   71  A    between atoms: _147  and  _149
REMARK   72  A    between atoms: _149  and  _150
REMARK   73  A    between atoms: _149  and  _152
REMARK   74  A    between atoms: _152  and  _153
REMARK   75  A    between atoms: _156  and  _158
REMARK   76  A    between atoms: _173  and  _174
REMARK   77  A    between atoms: _178  and  _180
REMARK   78  A    between atoms: _180  and  ZN_322
REMARK   79  A    between atoms: _181  and  _183
REMARK   80  A    between atoms: _183  and  _184
REMARK   81  A    between atoms: _186  and  _188
REMARK   82  A    between atoms: _188  and  _189
REMARK   83  A    between atoms: _188  and  _191
REMARK   84  A    between atoms: _191  and  _192
REMARK   85  A    between atoms: _192  and  _193
REMARK   86  A    between atoms: _193  and  _194
REMARK   87  A    between atoms: _203  and  _205
REMARK   88  A    between atoms: _205  and  _206
REMARK   89  A    between atoms: _205  and  _208
REMARK   90  A    between atoms: _208  and  _209
REMARK   91  A    between atoms: _212  and  _214
REMARK   92  A    between atoms: _214  and  _215
REMARK   93  A    between atoms: _218  and  _220
REMARK   94  A    between atoms: _220  and  _221
REMARK   95  A    between atoms: _220  and  _223
REMARK   96  A    between atoms: _223  and  _224
REMARK   97  A    between atoms: _227  and  _229
REMARK   98  A    between atoms: _229  and  _230
REMARK   99  A    between atoms: _229  and  _232
REMARK  100  A    between atoms: _232  and  _233
REMARK  101  A    between atoms: _236  and  _238
REMARK  102  A    between atoms: _238  and  _239
REMARK  103  A    between atoms: _238  and  _241
REMARK  104  A    between atoms: _241  and  _242
REMARK  105  A    between atoms: _245  and  _247
REMARK  106  A    between atoms: _247  and  _248
REMARK  107  A    between atoms: _250  and  _252
REMARK  108  A    between atoms: _252  and  _253
REMARK  109  A    between atoms: _256  and  _258
REMARK  110  A    between atoms: _258  and  _259
REMARK  111  A    between atoms: _258  and  _261
REMARK  112  A    between atoms: _261  and  _262
REMARK  113  A    between atoms: _262  and  _263
REMARK  114  A    between atoms: _265  and  _267
REMARK  115  A    between atoms: _267  and  _268
REMARK  116  A    between atoms: _267  and  _270
REMARK  117  A    between atoms: _270  and  _271
REMARK  118  A    between atoms: _274  and  _276
REMARK  119  A    between atoms: _276  and  _277
REMARK  120  A    between atoms: _276  and  _279
REMARK  121  A    between atoms: _279  and  _280
REMARK  122  A    between atoms: _283  and  _285
REMARK  123  A    between atoms: _285  and  _286
REMARK  124  A    between atoms: _285  and  _288
REMARK  125  A    between atoms: _288  and  _289
REMARK  126  A    between atoms: _292  and  _294
REMARK  127  A    between atoms: _294  and  _295
REMARK  128  A    between atoms: _294  and  _297
REMARK  129  A    between atoms: _297  and  _298
REMARK  130  A    between atoms: _301  and  _303
REMARK  131  A    between atoms: _303  and  _304
REMARK  132  A    between atoms: _307  and  _309
REMARK  133  A    between atoms: _309  and  _310
REMARK  134  A    between atoms: _312  and  _314
REMARK  135  A    between atoms: _314  and  _315
REMARK  136  A    between atoms: _314  and  _317
REMARK  137  A    between atoms: _317  and  _318
REMARK  138  A    between atoms: _318  and  _319
REMARK                            x       y       z     vdW  Elec       q    Type
REMARK                         _______ _______ _______ _____ _____    ______ ____
ROOT
ATOM      1  O   HOH     1      62.053  49.552  20.653  0.00  0.00    +0.000 OA
ENDROOT
TORSDOF 0
REMARK  Name = ../refined-set-2016/1lan/1lan_pocket.pdb
REMARK  138 active torsions:
REMARK  status: ('A' for Active; 'I' for Inactive)
REMARK    1  A    between atoms: _1  and  _3
REMARK    2  A    between atoms: _3  and  _4
REMARK    3  A    between atoms: _3  and  _6
REMARK    4  A    between atoms: _6  and  _7
REMARK    5  A    between atoms: _7  and  _8
REMARK    6  A    between atoms: _8  and  _9
REMARK    7  A    between atoms: _9  and  _10
REMARK    8  A    between atoms: _14  and  _16
REMARK    9  A    between atoms: _16  and  _17
REMARK   10  A    between atoms: _16  and  _19
REMARK   11  A    between atoms: _19  and  _20
REMARK   12  A    between atoms: _23  and  _25
REMARK   13  A    between atoms: _25  and  _26
REMARK   14  A    between atoms: _25  and  _28
REMARK   15  A    between atoms: _28  and  _29
REMARK   16  A    between atoms: _35  and  _37
REMARK   17  A    between atoms: _37  and  _38
REMARK   18  A    between atoms: _37  and  _40
REMARK   19  A    between atoms: _40  and  _41
REMARK   20  A    between atoms: _41  and  _43
REMARK   21  A    between atoms: _43  and  ZN_321
REMARK   22  A    between atoms: _44  and  _46
REMARK   23  A    between atoms: _46  and  _47
REMARK   24  A    between atoms: _46  and  _49
REMARK   25  A    between atoms: _49  and  _50
REMARK   26  A    between atoms: _52  and  _54
REMARK   27  A    between atoms: _54  and  _55
REMARK   28  A    between atoms: _57  and  _59
REMARK   29  A    between atoms: _59  and  _60
REMARK   30  A    between atoms: _59  and  _62
REMARK   31  A    between atoms: _62  and  _63
REMARK   32  A    between atoms: _65  and  _67
REMARK   33  A    between atoms: _67  and  _68
REMARK   34  A    between atoms: _67  and  _70
REMARK   35  A    between atoms: _70  and  _71
REMARK   36  A    between atoms: _71  and  _72
REMARK   37  A    between atoms: _72  and  _73
REMARK   38  A    between atoms: _73  and  _74
REMARK   39  A    between atoms: _78  and  _80
REMARK   40  A    between atoms: _80  and  _81
REMARK   41  A    between atoms: _80  and  _83
REMARK   42  A    between atoms: _83  and  _84
REMARK   43  A    between atoms: _87  and  _89
REMARK   44  A    between atoms: _89  and  _90
REMARK   45  A    between atoms: _89  and  _92
REMARK   46  A    between atoms: _92  and  _93
REMARK   47  A    between atoms: _93  and  _94
REMARK   48  A    between atoms: _96  and  _98
REMARK   49  A    between atoms: _98  and  _99
REMARK   50  A    between atoms: _102  and  _104
REMARK   51  A    between atoms: _104  and  _105
REMARK   52  A    between atoms: _104  and  _107
REMARK   53  A    between atoms: _107  and  _108
REMARK   54  A    between atoms: _108  and  _110
REMARK   55  A    between atoms: _110  and  ZN_322
REMARK   56  A    between atoms: _111  and  _113
REMARK   57  A    between atoms: _113  and  _114
REMARK   58  A    between atoms: _113  and  _116
REMARK   59  A    between atoms: _116  and  _117
REMARK   60  A    between atoms: _117  and  _118
REMARK   61  A    between atoms: _120  and  _122
REMARK   62  A    between atoms: _122  and  _123
REMARK   63  A    between atoms: _125  and  _127
REMARK   64  A    between atoms: _127  and  _128
REMARK   65  A    between atoms: _127  and  _130
REMARK   66  A    between atoms: _130  and  _131
REMARK   67  A    between atoms: _136  and  _138
REMARK   68  A    between atoms: _138  and  _139
REMARK   69  A    between atoms: _138  and  _141
REMARK   70  A    between atoms: _141  and  _142
REMARK   71  A    between atoms: _147  and  _149
REMARK   72  A    between atoms: _149  and  _150
REMARK   73  A    between atoms: _149  and  _152
REMARK   74  A    between atoms: _152  and  _153
REMARK   75  A    between atoms: _156  and  _158
REMARK   76  A    between atoms: _173  and  _174
REMARK   77  A    between atoms: _178  and  _180
REMARK   78  A    between atoms: _180  and  ZN_322
REMARK   79  A    between atoms: _181  and  _183
REMARK   80  A    between atoms: _183  and  _184
REMARK   81  A    between atoms: _186  and  _188
REMARK   82  A    between atoms: _188  and  _189
REMARK   83  A    between atoms: _188  and  _191
REMARK   84  A    between atoms: _191  and  _192
REMARK   85  A    between atoms: _192  and  _193
REMARK   86  A    between atoms: _193  and  _194
REMARK   87  A    between atoms: _203  and  _205
REMARK   88  A    between atoms: _205  and  _206
REMARK   89  A    between atoms: _205  and  _208
REMARK   90  A    between atoms: _208  and  _209
REMARK   91  A    between atoms: _212  and  _214
REMARK   92  A    between atoms: _214  and  _215
REMARK   93  A    between atoms: _218  and  _220
REMARK   94  A    between atoms: _220  and  _221
REMARK   95  A    between atoms: _220  and  _223
REMARK   96  A    between atoms: _223  and  _224
REMARK   97  A    between atoms: _227  and  _229
REMARK   98  A    between atoms: _229  and  _230
REMARK   99  A    between atoms: _229  and  _232
REMARK  100  A    between atoms: _232  and  _233
REMARK  101  A    between atoms: _236  and  _238
REMARK  102  A    between atoms: _238  and  _239
REMARK  103  A    between atoms: _238  and  _241
REMARK  104  A    between atoms: _241  and  _242
REMARK  105  A    between atoms: _245  and  _247
REMARK  106  A    between atoms: _247  and  _248
REMARK  107  A    between atoms: _250  and  _252
REMARK  108  A    between atoms: _252  and  _253
REMARK  109  A    between atoms: _256  and  _258
REMARK  110  A    between atoms: _258  and  _259
REMARK  111  A    between atoms: _258  and  _261
REMARK  112  A    between atoms: _261  and  _262
REMARK  113  A    between atoms: _262  and  _263
REMARK  114  A    between atoms: _265  and  _267
REMARK  115  A    between atoms: _267  and  _268
REMARK  116  A    between atoms: _267  and  _270
REMARK  117  A    between atoms: _270  and  _271
REMARK  118  A    between atoms: _274  and  _276
REMARK  119  A    between atoms: _276  and  _277
REMARK  120  A    between atoms: _276  and  _279
REMARK  121  A    between atoms: _279  and  _280
REMARK  122  A    between atoms: _283  and  _285
REMARK  123  A    between atoms: _285  and  _286
REMARK  124  A    between atoms: _285  and  _288
REMARK  125  A    between atoms: _288  and  _289
REMARK  126  A    between atoms: _292  and  _294
REMARK  127  A    between atoms: _294  and  _295
REMARK  128  A    between atoms: _294  and  _297
REMARK  129  A    between atoms: _297  and  _298
REMARK  130  A    between atoms: _301  and  _303
REMARK  131  A    between atoms: _303  and  _304
REMARK  132  A    between atoms: _307  and  _309
REMARK  133  A    between atoms: _309  and  _310
REMARK  134  A    between atoms: _312  and  _314
REMARK  135  A    between atoms: _314  and  _315
REMARK  136  A    between atoms: _314  and  _317
REMARK  137  A    between atoms: _317  and  _318
REMARK  138  A    between atoms: _318  and  _319
REMARK                            x       y       z     vdW  Elec       q    Type
REMARK                         _______ _______ _______ _____ _____    ______ ____
ROOT
ATOM      1  O   HOH     1      69.212  46.583  20.463  0.00  0.00    +0.000 OA
ENDROOT
TORSDOF 0
REMARK  Name = ../refined-set-2016/1lan/1lan_pocket.pdb
REMARK  138 active torsions:
REMARK  status: ('A' for Active; 'I' for Inactive)
REMARK    1  A    between atoms: _1  and  _3
REMARK    2  A    between atoms: _3  and  _4
REMARK    3  A    between atoms: _3  and  _6
REMARK    4  A    between atoms: _6  and  _7
REMARK    5  A    between atoms: _7  and  _8
REMARK    6  A    between atoms: _8  and  _9
REMARK    7  A    between atoms: _9  and  _10
REMARK    8  A    between atoms: _14  and  _16
REMARK    9  A    between atoms: _16  and  _17
REMARK   10  A    between atoms: _16  and  _19
REMARK   11  A    between atoms: _19  and  _20
REMARK   12  A    between atoms: _23  and  _25
REMARK   13  A    between atoms: _25  and  _26
REMARK   14  A    between atoms: _25  and  _28
REMARK   15  A    between atoms: _28  and  _29
REMARK   16  A    between atoms: _35  and  _37
REMARK   17  A    between atoms: _37  and  _38
REMARK   18  A    between atoms: _37  and  _40
REMARK   19  A    between atoms: _40  and  _41
REMARK   20  A    between atoms: _41  and  _43
REMARK   21  A    between atoms: _43  and  ZN_321
REMARK   22  A    between atoms: _44  and  _46
REMARK   23  A    between atoms: _46  and  _47
REMARK   24  A    between atoms: _46  and  _49
REMARK   25  A    between atoms: _49  and  _50
REMARK   26  A    between atoms: _52  and  _54
REMARK   27  A    between atoms: _54  and  _55
REMARK   28  A    between atoms: _57  and  _59
REMARK   29  A    between atoms: _59  and  _60
REMARK   30  A    between atoms: _59  and  _62
REMARK   31  A    between atoms: _62  and  _63
REMARK   32  A    between atoms: _65  and  _67
REMARK   33  A    between atoms: _67  and  _68
REMARK   34  A    between atoms: _67  and  _70
REMARK   35  A    between atoms: _70  and  _71
REMARK   36  A    between atoms: _71  and  _72
REMARK   37  A    between atoms: _72  and  _73
REMARK   38  A    between atoms: _73  and  _74
REMARK   39  A    between atoms: _78  and  _80
REMARK   40  A    between atoms: _80  and  _81
REMARK   41  A    between atoms: _80  and  _83
REMARK   42  A    between atoms: _83  and  _84
REMARK   43  A    between atoms: _87  and  _89
REMARK   44  A    between atoms: _89  and  _90
REMARK   45  A    between atoms: _89  and  _92
REMARK   46  A    between atoms: _92  and  _93
REMARK   47  A    between atoms: _93  and  _94
REMARK   48  A    between atoms: _96  and  _98
REMARK   49  A    between atoms: _98  and  _99
REMARK   50  A    between atoms: _102  and  _104
REMARK   51  A    between atoms: _104  and  _105
REMARK   52  A    between atoms: _104  and  _107
REMARK   53  A    between atoms: _107  and  _108
REMARK   54  A    between atoms: _108  and  _110
REMARK   55  A    between atoms: _110  and  ZN_322
REMARK   56  A    between atoms: _111  and  _113
REMARK   57  A    between atoms: _113  and  _114
REMARK   58  A    between atoms: _113  and  _116
REMARK   59  A    between atoms: _116  and  _117
REMARK   60  A    between atoms: _117  and  _118
REMARK   61  A    between atoms: _120  and  _122
REMARK   62  A    between atoms: _122  and  _123
REMARK   63  A    between atoms: _125  and  _127
REMARK   64  A    between atoms: _127  and  _128
REMARK   65  A    between atoms: _127  and  _130
REMARK   66  A    between atoms: _130  and  _131
REMARK   67  A    between atoms: _136  and  _138
REMARK   68  A    between atoms: _138  and  _139
REMARK   69  A    between atoms: _138  and  _141
REMARK   70  A    between atoms: _141  and  _142
REMARK   71  A    between atoms: _147  and  _149
REMARK   72  A    between atoms: _149  and  _150
REMARK   73  A    between atoms: _149  and  _152
REMARK   74  A    between atoms: _152  and  _153
REMARK   75  A    between atoms: _156  and  _158
REMARK   76  A    between atoms: _173  and  _174
REMARK   77  A    between atoms: _178  and  _180
REMARK   78  A    between atoms: _180  and  ZN_322
REMARK   79  A    between atoms: _181  and  _183
REMARK   80  A    between atoms: _183  and  _184
REMARK   81  A    between atoms: _186  and  _188
REMARK   82  A    between atoms: _188  and  _189
REMARK   83  A    between atoms: _188  and  _191
REMARK   84  A    between atoms: _191  and  _192
REMARK   85  A    between atoms: _192  and  _193
REMARK   86  A    between atoms: _193  and  _194
REMARK   87  A    between atoms: _203  and  _205
REMARK   88  A    between atoms: _205  and  _206
REMARK   89  A    between atoms: _205  and  _208
REMARK   90  A    between atoms: _208  and  _209
REMARK   91  A    between atoms: _212  and  _214
REMARK   92  A    between atoms: _214  and  _215
REMARK   93  A    between atoms: _218  and  _220
REMARK   94  A    between atoms: _220  and  _221
REMARK   95  A    between atoms: _220  and  _223
REMARK   96  A    between atoms: _223  and  _224
REMARK   97  A    between atoms: _227  and  _229
REMARK   98  A    between atoms: _229  and  _230
REMARK   99  A    between atoms: _229  and  _232
REMARK  100  A    between atoms: _232  and  _233
REMARK  101  A    between atoms: _236  and  _238
REMARK  102  A    between atoms: _238  and  _239
REMARK  103  A    between atoms: _238  and  _241
REMARK  104  A    between atoms: _241  and  _242
REMARK  105  A    between atoms: _245  and  _247
REMARK  106  A    between atoms: _247  and  _248
REMARK  107  A    between atoms: _250  and  _252
REMARK  108  A    between atoms: _252  and  _253
REMARK  109  A    between atoms: _256  and  _258
REMARK  110  A    between atoms: _258  and  _259
REMARK  111  A    between atoms: _258  and  _261
REMARK  112  A    between atoms: _261  and  _262
REMARK  113  A    between atoms: _262  and  _263
REMARK  114  A    between atoms: _265  and  _267
REMARK  115  A    between atoms: _267  and  _268
REMARK  116  A    between atoms: _267  and  _270
REMARK  117  A    between atoms: _270  and  _271
REMARK  118  A    between atoms: _274  and  _276
REMARK  119  A    between atoms: _276  and  _277
REMARK  120  A    between atoms: _276  and  _279
REMARK  121  A    between atoms: _279  and  _280
REMARK  122  A    between atoms: _283  and  _285
REMARK  123  A    between atoms: _285  and  _286
REMARK  124  A    between atoms: _285  and  _288
REMARK  125  A    between atoms: _288  and  _289
REMARK  126  A    between atoms: _292  and  _294
REMARK  127  A    between atoms: _294  and  _295
REMARK  128  A    between atoms: _294  and  _297
REMARK  129  A    between atoms: _297  and  _298
REMARK  130  A    between atoms: _301  and  _303
REMARK  131  A    between atoms: _303  and  _304
REMARK  132  A    between atoms: _307  and  _309
REMARK  133  A    between atoms: _309  and  _310
REMARK  134  A    between atoms: _312  and  _314
REMARK  135  A    between atoms: _314  and  _315
REMARK  136  A    between atoms: _314  and  _317
REMARK  137  A    between atoms: _317  and  _318
REMARK  138  A    between atoms: _318  and  _319
REMARK                            x       y       z     vdW  Elec       q    Type
REMARK                         _______ _______ _______ _____ _____    ______ ____
ROOT
ATOM      1  O   HOH     1      57.034  49.564  20.717  0.00  0.00    +0.000 OA
ENDROOT
TORSDOF 0
REMARK  Name = ../refined-set-2016/1lan/1lan_pocket.pdb
REMARK  138 active torsions:
REMARK  status: ('A' for Active; 'I' for Inactive)
REMARK    1  A    between atoms: _1  and  _3
REMARK    2  A    between atoms: _3  and  _4
REMARK    3  A    between atoms: _3  and  _6
REMARK    4  A    between atoms: _6  and  _7
REMARK    5  A    between atoms: _7  and  _8
REMARK    6  A    between atoms: _8  and  _9
REMARK    7  A    between atoms: _9  and  _10
REMARK    8  A    between atoms: _14  and  _16
REMARK    9  A    between atoms: _16  and  _17
REMARK   10  A    between atoms: _16  and  _19
REMARK   11  A    between atoms: _19  and  _20
REMARK   12  A    between atoms: _23  and  _25
REMARK   13  A    between atoms: _25  and  _26
REMARK   14  A    between atoms: _25  and  _28
REMARK   15  A    between atoms: _28  and  _29
REMARK   16  A    between atoms: _35  and  _37
REMARK   17  A    between atoms: _37  and  _38
REMARK   18  A    between atoms: _37  and  _40
REMARK   19  A    between atoms: _40  and  _41
REMARK   20  A    between atoms: _41  and  _43
REMARK   21  A    between atoms: _43  and  ZN_321
REMARK   22  A    between atoms: _44  and  _46
REMARK   23  A    between atoms: _46  and  _47
REMARK   24  A    between atoms: _46  and  _49
REMARK   25  A    between atoms: _49  and  _50
REMARK   26  A    between atoms: _52  and  _54
REMARK   27  A    between atoms: _54  and  _55
REMARK   28  A    between atoms: _57  and  _59
REMARK   29  A    between atoms: _59  and  _60
REMARK   30  A    between atoms: _59  and  _62
REMARK   31  A    between atoms: _62  and  _63
REMARK   32  A    between atoms: _65  and  _67
REMARK   33  A    between atoms: _67  and  _68
REMARK   34  A    between atoms: _67  and  _70
REMARK   35  A    between atoms: _70  and  _71
REMARK   36  A    between atoms: _71  and  _72
REMARK   37  A    between atoms: _72  and  _73
REMARK   38  A    between atoms: _73  and  _74
REMARK   39  A    between atoms: _78  and  _80
REMARK   40  A    between atoms: _80  and  _81
REMARK   41  A    between atoms: _80  and  _83
REMARK   42  A    between atoms: _83  and  _84
REMARK   43  A    between atoms: _87  and  _89
REMARK   44  A    between atoms: _89  and  _90
REMARK   45  A    between atoms: _89  and  _92
REMARK   46  A    between atoms: _92  and  _93
REMARK   47  A    between atoms: _93  and  _94
REMARK   48  A    between atoms: _96  and  _98
REMARK   49  A    between atoms: _98  and  _99
REMARK   50  A    between atoms: _102  and  _104
REMARK   51  A    between atoms: _104  and  _105
REMARK   52  A    between atoms: _104  and  _107
REMARK   53  A    between atoms: _107  and  _108
REMARK   54  A    between atoms: _108  and  _110
REMARK   55  A    between atoms: _110  and  ZN_322
REMARK   56  A    between atoms: _111  and  _113
REMARK   57  A    between atoms: _113  and  _114
REMARK   58  A    between atoms: _113  and  _116
REMARK   59  A    between atoms: _116  and  _117
REMARK   60  A    between atoms: _117  and  _118
REMARK   61  A    between atoms: _120  and  _122
REMARK   62  A    between atoms: _122  and  _123
REMARK   63  A    between atoms: _125  and  _127
REMARK   64  A    between atoms: _127  and  _128
REMARK   65  A    between atoms: _127  and  _130
REMARK   66  A    between atoms: _130  and  _131
REMARK   67  A    between atoms: _136  and  _138
REMARK   68  A    between atoms: _138  and  _139
REMARK   69  A    between atoms: _138  and  _141
REMARK   70  A    between atoms: _141  and  _142
REMARK   71  A    between atoms: _147  and  _149
REMARK   72  A    between atoms: _149  and  _150
REMARK   73  A    between atoms: _149  and  _152
REMARK   74  A    between atoms: _152  and  _153
REMARK   75  A    between atoms: _156  and  _158
REMARK   76  A    between atoms: _173  and  _174
REMARK   77  A    between atoms: _178  and  _180
REMARK   78  A    between atoms: _180  and  ZN_322
REMARK   79  A    between atoms: _181  and  _183
REMARK   80  A    between atoms: _183  and  _184
REMARK   81  A    between atoms: _186  and  _188
REMARK   82  A    between atoms: _188  and  _189
REMARK   83  A    between atoms: _188  and  _191
REMARK   84  A    between atoms: _191  and  _192
REMARK   85  A    between atoms: _192  and  _193
REMARK   86  A    between atoms: _193  and  _194
REMARK   87  A    between atoms: _203  and  _205
REMARK   88  A    between atoms: _205  and  _206
REMARK   89  A    between atoms: _205  and  _208
REMARK   90  A    between atoms: _208  and  _209
REMARK   91  A    between atoms: _212  and  _214
REMARK   92  A    between atoms: _214  and  _215
REMARK   93  A    between atoms: _218  and  _220
REMARK   94  A    between atoms: _220  and  _221
REMARK   95  A    between atoms: _220  and  _223
REMARK   96  A    between atoms: _223  and  _224
REMARK   97  A    between atoms: _227  and  _229
REMARK   98  A    between atoms: _229  and  _230
REMARK   99  A    between atoms: _229  and  _232
REMARK  100  A    between atoms: _232  and  _233
REMARK  101  A    between atoms: _236  and  _238
REMARK  102  A    between atoms: _238  and  _239
REMARK  103  A    between atoms: _238  and  _241
REMARK  104  A    between atoms: _241  and  _242
REMARK  105  A    between atoms: _245  and  _247
REMARK  106  A    between atoms: _247  and  _248
REMARK  107  A    between atoms: _250  and  _252
REMARK  108  A    between atoms: _252  and  _253
REMARK  109  A    between atoms: _256  and  _258
REMARK  110  A    between atoms: _258  and  _259
REMARK  111  A    between atoms: _258  and  _261
REMARK  112  A    between atoms: _261  and  _262
REMARK  113  A    between atoms: _262  and  _263
REMARK  114  A    between atoms: _265  and  _267
REMARK  115  A    between atoms: _267  and  _268
REMARK  116  A    between atoms: _267  and  _270
REMARK  117  A    between atoms: _270  and  _271
REMARK  118  A    between atoms: _274  and  _276
REMARK  119  A    between atoms: _276  and  _277
REMARK  120  A    between atoms: _276  and  _279
REMARK  121  A    between atoms: _279  and  _280
REMARK  122  A    between atoms: _283  and  _285
REMARK  123  A    between atoms: _285  and  _286
REMARK  124  A    between atoms: _285  and  _288
REMARK  125  A    between atoms: _288  and  _289
REMARK  126  A    between atoms: _292  and  _294
REMARK  127  A    between atoms: _294  and  _295
REMARK  128  A    between atoms: _294  and  _297
REMARK  129  A    between atoms: _297  and  _298
REMARK  130  A    between atoms: _301  and  _303
REMARK  131  A    between atoms: _303  and  _304
REMARK  132  A    between atoms: _307  and  _309
REMARK  133  A    between atoms: _309  and  _310
REMARK  134  A    between atoms: _312  and  _314
REMARK  135  A    between atoms: _314  and  _315
REMARK  136  A    between atoms: _314  and  _317
REMARK  137  A    between atoms: _317  and  _318
REMARK  138  A    between atoms: _318  and  _319
REMARK                            x       y       z     vdW  Elec       q    Type
REMARK                         _______ _______ _______ _____ _____    ______ ____
ROOT
ATOM      1  O   HOH     1      62.788  45.804  21.780  0.00  0.00    +0.000 OA
ENDROOT
TORSDOF 0
REMARK  Name = ../refined-set-2016/1lan/1lan_pocket.pdb
REMARK  138 active torsions:
REMARK  status: ('A' for Active; 'I' for Inactive)
REMARK    1  A    between atoms: _1  and  _3
REMARK    2  A    between atoms: _3  and  _4
REMARK    3  A    between atoms: _3  and  _6
REMARK    4  A    between atoms: _6  and  _7
REMARK    5  A    between atoms: _7  and  _8
REMARK    6  A    between atoms: _8  and  _9
REMARK    7  A    between atoms: _9  and  _10
REMARK    8  A    between atoms: _14  and  _16
REMARK    9  A    between atoms: _16  and  _17
REMARK   10  A    between atoms: _16  and  _19
REMARK   11  A    between atoms: _19  and  _20
REMARK   12  A    between atoms: _23  and  _25
REMARK   13  A    between atoms: _25  and  _26
REMARK   14  A    between atoms: _25  and  _28
REMARK   15  A    between atoms: _28  and  _29
REMARK   16  A    between atoms: _35  and  _37
REMARK   17  A    between atoms: _37  and  _38
REMARK   18  A    between atoms: _37  and  _40
REMARK   19  A    between atoms: _40  and  _41
REMARK   20  A    between atoms: _41  and  _43
REMARK   21  A    between atoms: _43  and  ZN_321
REMARK   22  A    between atoms: _44  and  _46
REMARK   23  A    between atoms: _46  and  _47
REMARK   24  A    between atoms: _46  and  _49
REMARK   25  A    between atoms: _49  and  _50
REMARK   26  A    between atoms: _52  and  _54
REMARK   27  A    between atoms: _54  and  _55
REMARK   28  A    between atoms: _57  and  _59
REMARK   29  A    between atoms: _59  and  _60
REMARK   30  A    between atoms: _59  and  _62
REMARK   31  A    between atoms: _62  and  _63
REMARK   32  A    between atoms: _65  and  _67
REMARK   33  A    between atoms: _67  and  _68
REMARK   34  A    between atoms: _67  and  _70
REMARK   35  A    between atoms: _70  and  _71
REMARK   36  A    between atoms: _71  and  _72
REMARK   37  A    between atoms: _72  and  _73
REMARK   38  A    between atoms: _73  and  _74
REMARK   39  A    between atoms: _78  and  _80
REMARK   40  A    between atoms: _80  and  _81
REMARK   41  A    between atoms: _80  and  _83
REMARK   42  A    between atoms: _83  and  _84
REMARK   43  A    between atoms: _87  and  _89
REMARK   44  A    between atoms: _89  and  _90
REMARK   45  A    between atoms: _89  and  _92
REMARK   46  A    between atoms: _92  and  _93
REMARK   47  A    between atoms: _93  and  _94
REMARK   48  A    between atoms: _96  and  _98
REMARK   49  A    between atoms: _98  and  _99
REMARK   50  A    between atoms: _102  and  _104
REMARK   51  A    between atoms: _104  and  _105
REMARK   52  A    between atoms: _104  and  _107
REMARK   53  A    between atoms: _107  and  _108
REMARK   54  A    between atoms: _108  and  _110
REMARK   55  A    between atoms: _110  and  ZN_322
REMARK   56  A    between atoms: _111  and  _113
REMARK   57  A    between atoms: _113  and  _114
REMARK   58  A    between atoms: _113  and  _116
REMARK   59  A    between atoms: _116  and  _117
REMARK   60  A    between atoms: _117  and  _118
REMARK   61  A    between atoms: _120  and  _122
REMARK   62  A    between atoms: _122  and  _123
REMARK   63  A    between atoms: _125  and  _127
REMARK   64  A    between atoms: _127  and  _128
REMARK   65  A    between atoms: _127  and  _130
REMARK   66  A    between atoms: _130  and  _131
REMARK   67  A    between atoms: _136  and  _138
REMARK   68  A    between atoms: _138  and  _139
REMARK   69  A    between atoms: _138  and  _141
REMARK   70  A    between atoms: _141  and  _142
REMARK   71  A    between atoms: _147  and  _149
REMARK   72  A    between atoms: _149  and  _150
REMARK   73  A    between atoms: _149  and  _152
REMARK   74  A    between atoms: _152  and  _153
REMARK   75  A    between atoms: _156  and  _158
REMARK   76  A    between atoms: _173  and  _174
REMARK   77  A    between atoms: _178  and  _180
REMARK   78  A    between atoms: _180  and  ZN_322
REMARK   79  A    between atoms: _181  and  _183
REMARK   80  A    between atoms: _183  and  _184
REMARK   81  A    between atoms: _186  and  _188
REMARK   82  A    between atoms: _188  and  _189
REMARK   83  A    between atoms: _188  and  _191
REMARK   84  A    between atoms: _191  and  _192
REMARK   85  A    between atoms: _192  and  _193
REMARK   86  A    between atoms: _193  and  _194
REMARK   87  A    between atoms: _203  and  _205
REMARK   88  A    between atoms: _205  and  _206
REMARK   89  A    between atoms: _205  and  _208
REMARK   90  A    between atoms: _208  and  _209
REMARK   91  A    between atoms: _212  and  _214
REMARK   92  A    between atoms: _214  and  _215
REMARK   93  A    between atoms: _218  and  _220
REMARK   94  A    between atoms: _220  and  _221
REMARK   95  A    between atoms: _220  and  _223
REMARK   96  A    between atoms: _223  and  _224
REMARK   97  A    between atoms: _227  and  _229
REMARK   98  A    between atoms: _229  and  _230
REMARK   99  A    between atoms: _229  and  _232
REMARK  100  A    between atoms: _232  and  _233
REMARK  101  A    between atoms: _236  and  _238
REMARK  102  A    between atoms: _238  and  _239
REMARK  103  A    between atoms: _238  and  _241
REMARK  104  A    between atoms: _241  and  _242
REMARK  105  A    between atoms: _245  and  _247
REMARK  106  A    between atoms: _247  and  _248
REMARK  107  A    between atoms: _250  and  _252
REMARK  108  A    between atoms: _252  and  _253
REMARK  109  A    between atoms: _256  and  _258
REMARK  110  A    between atoms: _258  and  _259
REMARK  111  A    between atoms: _258  and  _261
REMARK  112  A    between atoms: _261  and  _262
REMARK  113  A    between atoms: _262  and  _263
REMARK  114  A    between atoms: _265  and  _267
REMARK  115  A    between atoms: _267  and  _268
REMARK  116  A    between atoms: _267  and  _270
REMARK  117  A    between atoms: _270  and  _271
REMARK  118  A    between atoms: _274  and  _276
REMARK  119  A    between atoms: _276  and  _277
REMARK  120  A    between atoms: _276  and  _279
REMARK  121  A    between atoms: _279  and  _280
REMARK  122  A    between atoms: _283  and  _285
REMARK  123  A    between atoms: _285  and  _286
REMARK  124  A    between atoms: _285  and  _288
REMARK  125  A    between atoms: _288  and  _289
REMARK  126  A    between atoms: _292  and  _294
REMARK  127  A    between atoms: _294  and  _295
REMARK  128  A    between atoms: _294  and  _297
REMARK  129  A    between atoms: _297  and  _298
REMARK  130  A    between atoms: _301  and  _303
REMARK  131  A    between atoms: _303  and  _304
REMARK  132  A    between atoms: _307  and  _309
REMARK  133  A    between atoms: _309  and  _310
REMARK  134  A    between atoms: _312  and  _314
REMARK  135  A    between atoms: _314  and  _315
REMARK  136  A    between atoms: _314  and  _317
REMARK  137  A    between atoms: _317  and  _318
REMARK  138  A    between atoms: _318  and  _319
REMARK                            x       y       z     vdW  Elec       q    Type
REMARK                         _______ _______ _______ _____ _____    ______ ____
ROOT
ATOM      1  O   HOH     1      66.848  46.259  18.881  0.00  0.00    +0.000 OA
ENDROOT
TORSDOF 0
REMARK  Name = ../refined-set-2016/1lan/1lan_pocket.pdb
REMARK  138 active torsions:
REMARK  status: ('A' for Active; 'I' for Inactive)
REMARK    1  A    between atoms: _1  and  _3
REMARK    2  A    between atoms: _3  and  _4
REMARK    3  A    between atoms: _3  and  _6
REMARK    4  A    between atoms: _6  and  _7
REMARK    5  A    between atoms: _7  and  _8
REMARK    6  A    between atoms: _8  and  _9
REMARK    7  A    between atoms: _9  and  _10
REMARK    8  A    between atoms: _14  and  _16
REMARK    9  A    between atoms: _16  and  _17
REMARK   10  A    between atoms: _16  and  _19
REMARK   11  A    between atoms: _19  and  _20
REMARK   12  A    between atoms: _23  and  _25
REMARK   13  A    between atoms: _25  and  _26
REMARK   14  A    between atoms: _25  and  _28
REMARK   15  A    between atoms: _28  and  _29
REMARK   16  A    between atoms: _35  and  _37
REMARK   17  A    between atoms: _37  and  _38
REMARK   18  A    between atoms: _37  and  _40
REMARK   19  A    between atoms: _40  and  _41
REMARK   20  A    between atoms: _41  and  _43
REMARK   21  A    between atoms: _43  and  ZN_321
REMARK   22  A    between atoms: _44  and  _46
REMARK   23  A    between atoms: _46  and  _47
REMARK   24  A    between atoms: _46  and  _49
REMARK   25  A    between atoms: _49  and  _50
REMARK   26  A    between atoms: _52  and  _54
REMARK   27  A    between atoms: _54  and  _55
REMARK   28  A    between atoms: _57  and  _59
REMARK   29  A    between atoms: _59  and  _60
REMARK   30  A    between atoms: _59  and  _62
REMARK   31  A    between atoms: _62  and  _63
REMARK   32  A    between atoms: _65  and  _67
REMARK   33  A    between atoms: _67  and  _68
REMARK   34  A    between atoms: _67  and  _70
REMARK   35  A    between atoms: _70  and  _71
REMARK   36  A    between atoms: _71  and  _72
REMARK   37  A    between atoms: _72  and  _73
REMARK   38  A    between atoms: _73  and  _74
REMARK   39  A    between atoms: _78  and  _80
REMARK   40  A    between atoms: _80  and  _81
REMARK   41  A    between atoms: _80  and  _83
REMARK   42  A    between atoms: _83  and  _84
REMARK   43  A    between atoms: _87  and  _89
REMARK   44  A    between atoms: _89  and  _90
REMARK   45  A    between atoms: _89  and  _92
REMARK   46  A    between atoms: _92  and  _93
REMARK   47  A    between atoms: _93  and  _94
REMARK   48  A    between atoms: _96  and  _98
REMARK   49  A    between atoms: _98  and  _99
REMARK   50  A    between atoms: _102  and  _104
REMARK   51  A    between atoms: _104  and  _105
REMARK   52  A    between atoms: _104  and  _107
REMARK   53  A    between atoms: _107  and  _108
REMARK   54  A    between atoms: _108  and  _110
REMARK   55  A    between atoms: _110  and  ZN_322
REMARK   56  A    between atoms: _111  and  _113
REMARK   57  A    between atoms: _113  and  _114
REMARK   58  A    between atoms: _113  and  _116
REMARK   59  A    between atoms: _116  and  _117
REMARK   60  A    between atoms: _117  and  _118
REMARK   61  A    between atoms: _120  and  _122
REMARK   62  A    between atoms: _122  and  _123
REMARK   63  A    between atoms: _125  and  _127
REMARK   64  A    between atoms: _127  and  _128
REMARK   65  A    between atoms: _127  and  _130
REMARK   66  A    between atoms: _130  and  _131
REMARK   67  A    between atoms: _136  and  _138
REMARK   68  A    between atoms: _138  and  _139
REMARK   69  A    between atoms: _138  and  _141
REMARK   70  A    between atoms: _141  and  _142
REMARK   71  A    between atoms: _147  and  _149
REMARK   72  A    between atoms: _149  and  _150
REMARK   73  A    between atoms: _149  and  _152
REMARK   74  A    between atoms: _152  and  _153
REMARK   75  A    between atoms: _156  and  _158
REMARK   76  A    between atoms: _173  and  _174
REMARK   77  A    between atoms: _178  and  _180
REMARK   78  A    between atoms: _180  and  ZN_322
REMARK   79  A    between atoms: _181  and  _183
REMARK   80  A    between atoms: _183  and  _184
REMARK   81  A    between atoms: _186  and  _188
REMARK   82  A    between atoms: _188  and  _189
REMARK   83  A    between atoms: _188  and  _191
REMARK   84  A    between atoms: _191  and  _192
REMARK   85  A    between atoms: _192  and  _193
REMARK   86  A    between atoms: _193  and  _194
REMARK   87  A    between atoms: _203  and  _205
REMARK   88  A    between atoms: _205  and  _206
REMARK   89  A    between atoms: _205  and  _208
REMARK   90  A    between atoms: _208  and  _209
REMARK   91  A    between atoms: _212  and  _214
REMARK   92  A    between atoms: _214  and  _215
REMARK   93  A    between atoms: _218  and  _220
REMARK   94  A    between atoms: _220  and  _221
REMARK   95  A    between atoms: _220  and  _223
REMARK   96  A    between atoms: _223  and  _224
REMARK   97  A    between atoms: _227  and  _229
REMARK   98  A    between atoms: _229  and  _230
REMARK   99  A    between atoms: _229  and  _232
REMARK  100  A    between atoms: _232  and  _233
REMARK  101  A    between atoms: _236  and  _238
REMARK  102  A    between atoms: _238  and  _239
REMARK  103  A    between atoms: _238  and  _241
REMARK  104  A    between atoms: _241  and  _242
REMARK  105  A    between atoms: _245  and  _247
REMARK  106  A    between atoms: _247  and  _248
REMARK  107  A    between atoms: _250  and  _252
REMARK  108  A    between atoms: _252  and  _253
REMARK  109  A    between atoms: _256  and  _258
REMARK  110  A    between atoms: _258  and  _259
REMARK  111  A    between atoms: _258  and  _261
REMARK  112  A    between atoms: _261  and  _262
REMARK  113  A    between atoms: _262  and  _263
REMARK  114  A    between atoms: _265  and  _267
REMARK  115  A    between atoms: _267  and  _268
REMARK  116  A    between atoms: _267  and  _270
REMARK  117  A    between atoms: _270  and  _271
REMARK  118  A    between atoms: _274  and  _276
REMARK  119  A    between atoms: _276  and  _277
REMARK  120  A    between atoms: _276  and  _279
REMARK  121  A    between atoms: _279  and  _280
REMARK  122  A    between atoms: _283  and  _285
REMARK  123  A    between atoms: _285  and  _286
REMARK  124  A    between atoms: _285  and  _288
REMARK  125  A    between atoms: _288  and  _289
REMARK  126  A    between atoms: _292  and  _294
REMARK  127  A    between atoms: _294  and  _295
REMARK  128  A    between atoms: _294  and  _297
REMARK  129  A    between atoms: _297  and  _298
REMARK  130  A    between atoms: _301  and  _303
REMARK  131  A    between atoms: _303  and  _304
REMARK  132  A    between atoms: _307  and  _309
REMARK  133  A    between atoms: _309  and  _310
REMARK  134  A    between atoms: _312  and  _314
REMARK  135  A    between atoms: _314  and  _315
REMARK  136  A    between atoms: _314  and  _317
REMARK  137  A    between atoms: _317  and  _318
REMARK  138  A    between atoms: _318  and  _319
REMARK                            x       y       z     vdW  Elec       q    Type
REMARK                         _______ _______ _______ _____ _____    ______ ____
ROOT
ATOM      1  O   HOH     1      67.719  54.906  23.379  0.00  0.00    +0.000 OA
ENDROOT
TORSDOF 0
REMARK  Name = ../refined-set-2016/1lan/1lan_pocket.pdb
REMARK  138 active torsions:
REMARK  status: ('A' for Active; 'I' for Inactive)
REMARK    1  A    between atoms: _1  and  _3
REMARK    2  A    between atoms: _3  and  _4
REMARK    3  A    between atoms: _3  and  _6
REMARK    4  A    between atoms: _6  and  _7
REMARK    5  A    between atoms: _7  and  _8
REMARK    6  A    between atoms: _8  and  _9
REMARK    7  A    between atoms: _9  and  _10
REMARK    8  A    between atoms: _14  and  _16
REMARK    9  A    between atoms: _16  and  _17
REMARK   10  A    between atoms: _16  and  _19
REMARK   11  A    between atoms: _19  and  _20
REMARK   12  A    between atoms: _23  and  _25
REMARK   13  A    between atoms: _25  and  _26
REMARK   14  A    between atoms: _25  and  _28
REMARK   15  A    between atoms: _28  and  _29
REMARK   16  A    between atoms: _35  and  _37
REMARK   17  A    between atoms: _37  and  _38
REMARK   18  A    between atoms: _37  and  _40
REMARK   19  A    between atoms: _40  and  _41
REMARK   20  A    between atoms: _41  and  _43
REMARK   21  A    between atoms: _43  and  ZN_321
REMARK   22  A    between atoms: _44  and  _46
REMARK   23  A    between atoms: _46  and  _47
REMARK   24  A    between atoms: _46  and  _49
REMARK   25  A    between atoms: _49  and  _50
REMARK   26  A    between atoms: _52  and  _54
REMARK   27  A    between atoms: _54  and  _55
REMARK   28  A    between atoms: _57  and  _59
REMARK   29  A    between atoms: _59  and  _60
REMARK   30  A    between atoms: _59  and  _62
REMARK   31  A    between atoms: _62  and  _63
REMARK   32  A    between atoms: _65  and  _67
REMARK   33  A    between atoms: _67  and  _68
REMARK   34  A    between atoms: _67  and  _70
REMARK   35  A    between atoms: _70  and  _71
REMARK   36  A    between atoms: _71  and  _72
REMARK   37  A    between atoms: _72  and  _73
REMARK   38  A    between atoms: _73  and  _74
REMARK   39  A    between atoms: _78  and  _80
REMARK   40  A    between atoms: _80  and  _81
REMARK   41  A    between atoms: _80  and  _83
REMARK   42  A    between atoms: _83  and  _84
REMARK   43  A    between atoms: _87  and  _89
REMARK   44  A    between atoms: _89  and  _90
REMARK   45  A    between atoms: _89  and  _92
REMARK   46  A    between atoms: _92  and  _93
REMARK   47  A    between atoms: _93  and  _94
REMARK   48  A    between atoms: _96  and  _98
REMARK   49  A    between atoms: _98  and  _99
REMARK   50  A    between atoms: _102  and  _104
REMARK   51  A    between atoms: _104  and  _105
REMARK   52  A    between atoms: _104  and  _107
REMARK   53  A    between atoms: _107  and  _108
REMARK   54  A    between atoms: _108  and  _110
REMARK   55  A    between atoms: _110  and  ZN_322
REMARK   56  A    between atoms: _111  and  _113
REMARK   57  A    between atoms: _113  and  _114
REMARK   58  A    between atoms: _113  and  _116
REMARK   59  A    between atoms: _116  and  _117
REMARK   60  A    between atoms: _117  and  _118
REMARK   61  A    between atoms: _120  and  _122
REMARK   62  A    between atoms: _122  and  _123
REMARK   63  A    between atoms: _125  and  _127
REMARK   64  A    between atoms: _127  and  _128
REMARK   65  A    between atoms: _127  and  _130
REMARK   66  A    between atoms: _130  and  _131
REMARK   67  A    between atoms: _136  and  _138
REMARK   68  A    between atoms: _138  and  _139
REMARK   69  A    between atoms: _138  and  _141
REMARK   70  A    between atoms: _141  and  _142
REMARK   71  A    between atoms: _147  and  _149
REMARK   72  A    between atoms: _149  and  _150
REMARK   73  A    between atoms: _149  and  _152
REMARK   74  A    between atoms: _152  and  _153
REMARK   75  A    between atoms: _156  and  _158
REMARK   76  A    between atoms: _173  and  _174
REMARK   77  A    between atoms: _178  and  _180
REMARK   78  A    between atoms: _180  and  ZN_322
REMARK   79  A    between atoms: _181  and  _183
REMARK   80  A    between atoms: _183  and  _184
REMARK   81  A    between atoms: _186  and  _188
REMARK   82  A    between atoms: _188  and  _189
REMARK   83  A    between atoms: _188  and  _191
REMARK   84  A    between atoms: _191  and  _192
REMARK   85  A    between atoms: _192  and  _193
REMARK   86  A    between atoms: _193  and  _194
REMARK   87  A    between atoms: _203  and  _205
REMARK   88  A    between atoms: _205  and  _206
REMARK   89  A    between atoms: _205  and  _208
REMARK   90  A    between atoms: _208  and  _209
REMARK   91  A    between atoms: _212  and  _214
REMARK   92  A    between atoms: _214  and  _215
REMARK   93  A    between atoms: _218  and  _220
REMARK   94  A    between atoms: _220  and  _221
REMARK   95  A    between atoms: _220  and  _223
REMARK   96  A    between atoms: _223  and  _224
REMARK   97  A    between atoms: _227  and  _229
REMARK   98  A    between atoms: _229  and  _230
REMARK   99  A    between atoms: _229  and  _232
REMARK  100  A    between atoms: _232  and  _233
REMARK  101  A    between atoms: _236  and  _238
REMARK  102  A    between atoms: _238  and  _239
REMARK  103  A    between atoms: _238  and  _241
REMARK  104  A    between atoms: _241  and  _242
REMARK  105  A    between atoms: _245  and  _247
REMARK  106  A    between atoms: _247  and  _248
REMARK  107  A    between atoms: _250  and  _252
REMARK  108  A    between atoms: _252  and  _253
REMARK  109  A    between atoms: _256  and  _258
REMARK  110  A    between atoms: _258  and  _259
REMARK  111  A    between atoms: _258  and  _261
REMARK  112  A    between atoms: _261  and  _262
REMARK  113  A    between atoms: _262  and  _263
REMARK  114  A    between atoms: _265  and  _267
REMARK  115  A    between atoms: _267  and  _268
REMARK  116  A    between atoms: _267  and  _270
REMARK  117  A    between atoms: _270  and  _271
REMARK  118  A    between atoms: _274  and  _276
REMARK  119  A    between atoms: _276  and  _277
REMARK  120  A    between atoms: _276  and  _279
REMARK  121  A    between atoms: _279  and  _280
REMARK  122  A    between atoms: _283  and  _285
REMARK  123  A    between atoms: _285  and  _286
REMARK  124  A    between atoms: _285  and  _288
REMARK  125  A    between atoms: _288  and  _289
REMARK  126  A    between atoms: _292  and  _294
REMARK  127  A    between atoms: _294  and  _295
REMARK  128  A    between atoms: _294  and  _297
REMARK  129  A    between atoms: _297  and  _298
REMARK  130  A    between atoms: _301  and  _303
REMARK  131  A    between atoms: _303  and  _304
REMARK  132  A    between atoms: _307  and  _309
REMARK  133  A    between atoms: _309  and  _310
REMARK  134  A    between atoms: _312  and  _314
REMARK  135  A    between atoms: _314  and  _315
REMARK  136  A    between atoms: _314  and  _317
REMARK  137  A    between atoms: _317  and  _318
REMARK  138  A    between atoms: _318  and  _319
REMARK                            x       y       z     vdW  Elec       q    Type
REMARK                         _______ _______ _______ _____ _____    ______ ____
ROOT
ATOM      1  O   HOH     1      65.493  53.354  21.446  0.00  0.00    +0.000 OA
ENDROOT
TORSDOF 0
REMARK  Name = ../refined-set-2016/1lan/1lan_pocket.pdb
REMARK  138 active torsions:
REMARK  status: ('A' for Active; 'I' for Inactive)
REMARK    1  A    between atoms: _1  and  _3
REMARK    2  A    between atoms: _3  and  _4
REMARK    3  A    between atoms: _3  and  _6
REMARK    4  A    between atoms: _6  and  _7
REMARK    5  A    between atoms: _7  and  _8
REMARK    6  A    between atoms: _8  and  _9
REMARK    7  A    between atoms: _9  and  _10
REMARK    8  A    between atoms: _14  and  _16
REMARK    9  A    between atoms: _16  and  _17
REMARK   10  A    between atoms: _16  and  _19
REMARK   11  A    between atoms: _19  and  _20
REMARK   12  A    between atoms: _23  and  _25
REMARK   13  A    between atoms: _25  and  _26
REMARK   14  A    between atoms: _25  and  _28
REMARK   15  A    between atoms: _28  and  _29
REMARK   16  A    between atoms: _35  and  _37
REMARK   17  A    between atoms: _37  and  _38
REMARK   18  A    between atoms: _37  and  _40
REMARK   19  A    between atoms: _40  and  _41
REMARK   20  A    between atoms: _41  and  _43
REMARK   21  A    between atoms: _43  and  ZN_321
REMARK   22  A    between atoms: _44  and  _46
REMARK   23  A    between atoms: _46  and  _47
REMARK   24  A    between atoms: _46  and  _49
REMARK   25  A    between atoms: _49  and  _50
REMARK   26  A    between atoms: _52  and  _54
REMARK   27  A    between atoms: _54  and  _55
REMARK   28  A    between atoms: _57  and  _59
REMARK   29  A    between atoms: _59  and  _60
REMARK   30  A    between atoms: _59  and  _62
REMARK   31  A    between atoms: _62  and  _63
REMARK   32  A    between atoms: _65  and  _67
REMARK   33  A    between atoms: _67  and  _68
REMARK   34  A    between atoms: _67  and  _70
REMARK   35  A    between atoms: _70  and  _71
REMARK   36  A    between atoms: _71  and  _72
REMARK   37  A    between atoms: _72  and  _73
REMARK   38  A    between atoms: _73  and  _74
REMARK   39  A    between atoms: _78  and  _80
REMARK   40  A    between atoms: _80  and  _81
REMARK   41  A    between atoms: _80  and  _83
REMARK   42  A    between atoms: _83  and  _84
REMARK   43  A    between atoms: _87  and  _89
REMARK   44  A    between atoms: _89  and  _90
REMARK   45  A    between atoms: _89  and  _92
REMARK   46  A    between atoms: _92  and  _93
REMARK   47  A    between atoms: _93  and  _94
REMARK   48  A    between atoms: _96  and  _98
REMARK   49  A    between atoms: _98  and  _99
REMARK   50  A    between atoms: _102  and  _104
REMARK   51  A    between atoms: _104  and  _105
REMARK   52  A    between atoms: _104  and  _107
REMARK   53  A    between atoms: _107  and  _108
REMARK   54  A    between atoms: _108  and  _110
REMARK   55  A    between atoms: _110  and  ZN_322
REMARK   56  A    between atoms: _111  and  _113
REMARK   57  A    between atoms: _113  and  _114
REMARK   58  A    between atoms: _113  and  _116
REMARK   59  A    between atoms: _116  and  _117
REMARK   60  A    between atoms: _117  and  _118
REMARK   61  A    between atoms: _120  and  _122
REMARK   62  A    between atoms: _122  and  _123
REMARK   63  A    between atoms: _125  and  _127
REMARK   64  A    between atoms: _127  and  _128
REMARK   65  A    between atoms: _127  and  _130
REMARK   66  A    between atoms: _130  and  _131
REMARK   67  A    between atoms: _136  and  _138
REMARK   68  A    between atoms: _138  and  _139
REMARK   69  A    between atoms: _138  and  _141
REMARK   70  A    between atoms: _141  and  _142
REMARK   71  A    between atoms: _147  and  _149
REMARK   72  A    between atoms: _149  and  _150
REMARK   73  A    between atoms: _149  and  _152
REMARK   74  A    between atoms: _152  and  _153
REMARK   75  A    between atoms: _156  and  _158
REMARK   76  A    between atoms: _173  and  _174
REMARK   77  A    between atoms: _178  and  _180
REMARK   78  A    between atoms: _180  and  ZN_322
REMARK   79  A    between atoms: _181  and  _183
REMARK   80  A    between atoms: _183  and  _184
REMARK   81  A    between atoms: _186  and  _188
REMARK   82  A    between atoms: _188  and  _189
REMARK   83  A    between atoms: _188  and  _191
REMARK   84  A    between atoms: _191  and  _192
REMARK   85  A    between atoms: _192  and  _193
REMARK   86  A    between atoms: _193  and  _194
REMARK   87  A    between atoms: _203  and  _205
REMARK   88  A    between atoms: _205  and  _206
REMARK   89  A    between atoms: _205  and  _208
REMARK   90  A    between atoms: _208  and  _209
REMARK   91  A    between atoms: _212  and  _214
REMARK   92  A    between atoms: _214  and  _215
REMARK   93  A    between atoms: _218  and  _220
REMARK   94  A    between atoms: _220  and  _221
REMARK   95  A    between atoms: _220  and  _223
REMARK   96  A    between atoms: _223  and  _224
REMARK   97  A    between atoms: _227  and  _229
REMARK   98  A    between atoms: _229  and  _230
REMARK   99  A    between atoms: _229  and  _232
REMARK  100  A    between atoms: _232  and  _233
REMARK  101  A    between atoms: _236  and  _238
REMARK  102  A    between atoms: _238  and  _239
REMARK  103  A    between atoms: _238  and  _241
REMARK  104  A    between atoms: _241  and  _242
REMARK  105  A    between atoms: _245  and  _247
REMARK  106  A    between atoms: _247  and  _248
REMARK  107  A    between atoms: _250  and  _252
REMARK  108  A    between atoms: _252  and  _253
REMARK  109  A    between atoms: _256  and  _258
REMARK  110  A    between atoms: _258  and  _259
REMARK  111  A    between atoms: _258  and  _261
REMARK  112  A    between atoms: _261  and  _262
REMARK  113  A    between atoms: _262  and  _263
REMARK  114  A    between atoms: _265  and  _267
REMARK  115  A    between atoms: _267  and  _268
REMARK  116  A    between atoms: _267  and  _270
REMARK  117  A    between atoms: _270  and  _271
REMARK  118  A    between atoms: _274  and  _276
REMARK  119  A    between atoms: _276  and  _277
REMARK  120  A    between atoms: _276  and  _279
REMARK  121  A    between atoms: _279  and  _280
REMARK  122  A    between atoms: _283  and  _285
REMARK  123  A    between atoms: _285  and  _286
REMARK  124  A    between atoms: _285  and  _288
REMARK  125  A    between atoms: _288  and  _289
REMARK  126  A    between atoms: _292  and  _294
REMARK  127  A    between atoms: _294  and  _295
REMARK  128  A    between atoms: _294  and  _297
REMARK  129  A    between atoms: _297  and  _298
REMARK  130  A    between atoms: _301  and  _303
REMARK  131  A    between atoms: _303  and  _304
REMARK  132  A    between atoms: _307  and  _309
REMARK  133  A    between atoms: _309  and  _310
REMARK  134  A    between atoms: _312  and  _314
REMARK  135  A    between atoms: _314  and  _315
REMARK  136  A    between atoms: _314  and  _317
REMARK  137  A    between atoms: _317  and  _318
REMARK  138  A    between atoms: _318  and  _319
REMARK                            x       y       z     vdW  Elec       q    Type
REMARK                         _______ _______ _______ _____ _____    ______ ____
ROOT
ATOM      1  O   HOH     1      67.101  51.870  19.702  0.00  0.00    +0.000 OA
ENDROOT
TORSDOF 0
REMARK  Name = ../refined-set-2016/1lan/1lan_pocket.pdb
REMARK  138 active torsions:
REMARK  status: ('A' for Active; 'I' for Inactive)
REMARK    1  A    between atoms: _1  and  _3
REMARK    2  A    between atoms: _3  and  _4
REMARK    3  A    between atoms: _3  and  _6
REMARK    4  A    between atoms: _6  and  _7
REMARK    5  A    between atoms: _7  and  _8
REMARK    6  A    between atoms: _8  and  _9
REMARK    7  A    between atoms: _9  and  _10
REMARK    8  A    between atoms: _14  and  _16
REMARK    9  A    between atoms: _16  and  _17
REMARK   10  A    between atoms: _16  and  _19
REMARK   11  A    between atoms: _19  and  _20
REMARK   12  A    between atoms: _23  and  _25
REMARK   13  A    between atoms: _25  and  _26
REMARK   14  A    between atoms: _25  and  _28
REMARK   15  A    between atoms: _28  and  _29
REMARK   16  A    between atoms: _35  and  _37
REMARK   17  A    between atoms: _37  and  _38
REMARK   18  A    between atoms: _37  and  _40
REMARK   19  A    between atoms: _40  and  _41
REMARK   20  A    between atoms: _41  and  _43
REMARK   21  A    between atoms: _43  and  ZN_321
REMARK   22  A    between atoms: _44  and  _46
REMARK   23  A    between atoms: _46  and  _47
REMARK   24  A    between atoms: _46  and  _49
REMARK   25  A    between atoms: _49  and  _50
REMARK   26  A    between atoms: _52  and  _54
REMARK   27  A    between atoms: _54  and  _55
REMARK   28  A    between atoms: _57  and  _59
REMARK   29  A    between atoms: _59  and  _60
REMARK   30  A    between atoms: _59  and  _62
REMARK   31  A    between atoms: _62  and  _63
REMARK   32  A    between atoms: _65  and  _67
REMARK   33  A    between atoms: _67  and  _68
REMARK   34  A    between atoms: _67  and  _70
REMARK   35  A    between atoms: _70  and  _71
REMARK   36  A    between atoms: _71  and  _72
REMARK   37  A    between atoms: _72  and  _73
REMARK   38  A    between atoms: _73  and  _74
REMARK   39  A    between atoms: _78  and  _80
REMARK   40  A    between atoms: _80  and  _81
REMARK   41  A    between atoms: _80  and  _83
REMARK   42  A    between atoms: _83  and  _84
REMARK   43  A    between atoms: _87  and  _89
REMARK   44  A    between atoms: _89  and  _90
REMARK   45  A    between atoms: _89  and  _92
REMARK   46  A    between atoms: _92  and  _93
REMARK   47  A    between atoms: _93  and  _94
REMARK   48  A    between atoms: _96  and  _98
REMARK   49  A    between atoms: _98  and  _99
REMARK   50  A    between atoms: _102  and  _104
REMARK   51  A    between atoms: _104  and  _105
REMARK   52  A    between atoms: _104  and  _107
REMARK   53  A    between atoms: _107  and  _108
REMARK   54  A    between atoms: _108  and  _110
REMARK   55  A    between atoms: _110  and  ZN_322
REMARK   56  A    between atoms: _111  and  _113
REMARK   57  A    between atoms: _113  and  _114
REMARK   58  A    between atoms: _113  and  _116
REMARK   59  A    between atoms: _116  and  _117
REMARK   60  A    between atoms: _117  and  _118
REMARK   61  A    between atoms: _120  and  _122
REMARK   62  A    between atoms: _122  and  _123
REMARK   63  A    between atoms: _125  and  _127
REMARK   64  A    between atoms: _127  and  _128
REMARK   65  A    between atoms: _127  and  _130
REMARK   66  A    between atoms: _130  and  _131
REMARK   67  A    between atoms: _136  and  _138
REMARK   68  A    between atoms: _138  and  _139
REMARK   69  A    between atoms: _138  and  _141
REMARK   70  A    between atoms: _141  and  _142
REMARK   71  A    between atoms: _147  and  _149
REMARK   72  A    between atoms: _149  and  _150
REMARK   73  A    between atoms: _149  and  _152
REMARK   74  A    between atoms: _152  and  _153
REMARK   75  A    between atoms: _156  and  _158
REMARK   76  A    between atoms: _173  and  _174
REMARK   77  A    between atoms: _178  and  _180
REMARK   78  A    between atoms: _180  and  ZN_322
REMARK   79  A    between atoms: _181  and  _183
REMARK   80  A    between atoms: _183  and  _184
REMARK   81  A    between atoms: _186  and  _188
REMARK   82  A    between atoms: _188  and  _189
REMARK   83  A    between atoms: _188  and  _191
REMARK   84  A    between atoms: _191  and  _192
REMARK   85  A    between atoms: _192  and  _193
REMARK   86  A    between atoms: _193  and  _194
REMARK   87  A    between atoms: _203  and  _205
REMARK   88  A    between atoms: _205  and  _206
REMARK   89  A    between atoms: _205  and  _208
REMARK   90  A    between atoms: _208  and  _209
REMARK   91  A    between atoms: _212  and  _214
REMARK   92  A    between atoms: _214  and  _215
REMARK   93  A    between atoms: _218  and  _220
REMARK   94  A    between atoms: _220  and  _221
REMARK   95  A    between atoms: _220  and  _223
REMARK   96  A    between atoms: _223  and  _224
REMARK   97  A    between atoms: _227  and  _229
REMARK   98  A    between atoms: _229  and  _230
REMARK   99  A    between atoms: _229  and  _232
REMARK  100  A    between atoms: _232  and  _233
REMARK  101  A    between atoms: _236  and  _238
REMARK  102  A    between atoms: _238  and  _239
REMARK  103  A    between atoms: _238  and  _241
REMARK  104  A    between atoms: _241  and  _242
REMARK  105  A    between atoms: _245  and  _247
REMARK  106  A    between atoms: _247  and  _248
REMARK  107  A    between atoms: _250  and  _252
REMARK  108  A    between atoms: _252  and  _253
REMARK  109  A    between atoms: _256  and  _258
REMARK  110  A    between atoms: _258  and  _259
REMARK  111  A    between atoms: _258  and  _261
REMARK  112  A    between atoms: _261  and  _262
REMARK  113  A    between atoms: _262  and  _263
REMARK  114  A    between atoms: _265  and  _267
REMARK  115  A    between atoms: _267  and  _268
REMARK  116  A    between atoms: _267  and  _270
REMARK  117  A    between atoms: _270  and  _271
REMARK  118  A    between atoms: _274  and  _276
REMARK  119  A    between atoms: _276  and  _277
REMARK  120  A    between atoms: _276  and  _279
REMARK  121  A    between atoms: _279  and  _280
REMARK  122  A    between atoms: _283  and  _285
REMARK  123  A    between atoms: _285  and  _286
REMARK  124  A    between atoms: _285  and  _288
REMARK  125  A    between atoms: _288  and  _289
REMARK  126  A    between atoms: _292  and  _294
REMARK  127  A    between atoms: _294  and  _295
REMARK  128  A    between atoms: _294  and  _297
REMARK  129  A    between atoms: _297  and  _298
REMARK  130  A    between atoms: _301  and  _303
REMARK  131  A    between atoms: _303  and  _304
REMARK  132  A    between atoms: _307  and  _309
REMARK  133  A    between atoms: _309  and  _310
REMARK  134  A    between atoms: _312  and  _314
REMARK  135  A    between atoms: _314  and  _315
REMARK  136  A    between atoms: _314  and  _317
REMARK  137  A    between atoms: _317  and  _318
REMARK  138  A    between atoms: _318  and  _319
REMARK                            x       y       z     vdW  Elec       q    Type
REMARK                         _______ _______ _______ _____ _____    ______ ____
ROOT
ATOM      1  O   HOH     1      65.459  46.286  21.594  0.00  0.00    +0.000 OA
ENDROOT
TORSDOF 0
REMARK  Name = ../refined-set-2016/1lan/1lan_pocket.pdb
REMARK  138 active torsions:
REMARK  status: ('A' for Active; 'I' for Inactive)
REMARK    1  A    between atoms: _1  and  _3
REMARK    2  A    between atoms: _3  and  _4
REMARK    3  A    between atoms: _3  and  _6
REMARK    4  A    between atoms: _6  and  _7
REMARK    5  A    between atoms: _7  and  _8
REMARK    6  A    between atoms: _8  and  _9
REMARK    7  A    between atoms: _9  and  _10
REMARK    8  A    between atoms: _14  and  _16
REMARK    9  A    between atoms: _16  and  _17
REMARK   10  A    between atoms: _16  and  _19
REMARK   11  A    between atoms: _19  and  _20
REMARK   12  A    between atoms: _23  and  _25
REMARK   13  A    between atoms: _25  and  _26
REMARK   14  A    between atoms: _25  and  _28
REMARK   15  A    between atoms: _28  and  _29
REMARK   16  A    between atoms: _35  and  _37
REMARK   17  A    between atoms: _37  and  _38
REMARK   18  A    between atoms: _37  and  _40
REMARK   19  A    between atoms: _40  and  _41
REMARK   20  A    between atoms: _41  and  _43
REMARK   21  A    between atoms: _43  and  ZN_321
REMARK   22  A    between atoms: _44  and  _46
REMARK   23  A    between atoms: _46  and  _47
REMARK   24  A    between atoms: _46  and  _49
REMARK   25  A    between atoms: _49  and  _50
REMARK   26  A    between atoms: _52  and  _54
REMARK   27  A    between atoms: _54  and  _55
REMARK   28  A    between atoms: _57  and  _59
REMARK   29  A    between atoms: _59  and  _60
REMARK   30  A    between atoms: _59  and  _62
REMARK   31  A    between atoms: _62  and  _63
REMARK   32  A    between atoms: _65  and  _67
REMARK   33  A    between atoms: _67  and  _68
REMARK   34  A    between atoms: _67  and  _70
REMARK   35  A    between atoms: _70  and  _71
REMARK   36  A    between atoms: _71  and  _72
REMARK   37  A    between atoms: _72  and  _73
REMARK   38  A    between atoms: _73  and  _74
REMARK   39  A    between atoms: _78  and  _80
REMARK   40  A    between atoms: _80  and  _81
REMARK   41  A    between atoms: _80  and  _83
REMARK   42  A    between atoms: _83  and  _84
REMARK   43  A    between atoms: _87  and  _89
REMARK   44  A    between atoms: _89  and  _90
REMARK   45  A    between atoms: _89  and  _92
REMARK   46  A    between atoms: _92  and  _93
REMARK   47  A    between atoms: _93  and  _94
REMARK   48  A    between atoms: _96  and  _98
REMARK   49  A    between atoms: _98  and  _99
REMARK   50  A    between atoms: _102  and  _104
REMARK   51  A    between atoms: _104  and  _105
REMARK   52  A    between atoms: _104  and  _107
REMARK   53  A    between atoms: _107  and  _108
REMARK   54  A    between atoms: _108  and  _110
REMARK   55  A    between atoms: _110  and  ZN_322
REMARK   56  A    between atoms: _111  and  _113
REMARK   57  A    between atoms: _113  and  _114
REMARK   58  A    between atoms: _113  and  _116
REMARK   59  A    between atoms: _116  and  _117
REMARK   60  A    between atoms: _117  and  _118
REMARK   61  A    between atoms: _120  and  _122
REMARK   62  A    between atoms: _122  and  _123
REMARK   63  A    between atoms: _125  and  _127
REMARK   64  A    between atoms: _127  and  _128
REMARK   65  A    between atoms: _127  and  _130
REMARK   66  A    between atoms: _130  and  _131
REMARK   67  A    between atoms: _136  and  _138
REMARK   68  A    between atoms: _138  and  _139
REMARK   69  A    between atoms: _138  and  _141
REMARK   70  A    between atoms: _141  and  _142
REMARK   71  A    between atoms: _147  and  _149
REMARK   72  A    between atoms: _149  and  _150
REMARK   73  A    between atoms: _149  and  _152
REMARK   74  A    between atoms: _152  and  _153
REMARK   75  A    between atoms: _156  and  _158
REMARK   76  A    between atoms: _173  and  _174
REMARK   77  A    between atoms: _178  and  _180
REMARK   78  A    between atoms: _180  and  ZN_322
REMARK   79  A    between atoms: _181  and  _183
REMARK   80  A    between atoms: _183  and  _184
REMARK   81  A    between atoms: _186  and  _188
REMARK   82  A    between atoms: _188  and  _189
REMARK   83  A    between atoms: _188  and  _191
REMARK   84  A    between atoms: _191  and  _192
REMARK   85  A    between atoms: _192  and  _193
REMARK   86  A    between atoms: _193  and  _194
REMARK   87  A    between atoms: _203  and  _205
REMARK   88  A    between atoms: _205  and  _206
REMARK   89  A    between atoms: _205  and  _208
REMARK   90  A    between atoms: _208  and  _209
REMARK   91  A    between atoms: _212  and  _214
REMARK   92  A    between atoms: _214  and  _215
REMARK   93  A    between atoms: _218  and  _220
REMARK   94  A    between atoms: _220  and  _221
REMARK   95  A    between atoms: _220  and  _223
REMARK   96  A    between atoms: _223  and  _224
REMARK   97  A    between atoms: _227  and  _229
REMARK   98  A    between atoms: _229  and  _230
REMARK   99  A    between atoms: _229  and  _232
REMARK  100  A    between atoms: _232  and  _233
REMARK  101  A    between atoms: _236  and  _238
REMARK  102  A    between atoms: _238  and  _239
REMARK  103  A    between atoms: _238  and  _241
REMARK  104  A    between atoms: _241  and  _242
REMARK  105  A    between atoms: _245  and  _247
REMARK  106  A    between atoms: _247  and  _248
REMARK  107  A    between atoms: _250  and  _252
REMARK  108  A    between atoms: _252  and  _253
REMARK  109  A    between atoms: _256  and  _258
REMARK  110  A    between atoms: _258  and  _259
REMARK  111  A    between atoms: _258  and  _261
REMARK  112  A    between atoms: _261  and  _262
REMARK  113  A    between atoms: _262  and  _263
REMARK  114  A    between atoms: _265  and  _267
REMARK  115  A    between atoms: _267  and  _268
REMARK  116  A    between atoms: _267  and  _270
REMARK  117  A    between atoms: _270  and  _271
REMARK  118  A    between atoms: _274  and  _276
REMARK  119  A    between atoms: _276  and  _277
REMARK  120  A    between atoms: _276  and  _279
REMARK  121  A    between atoms: _279  and  _280
REMARK  122  A    between atoms: _283  and  _285
REMARK  123  A    between atoms: _285  and  _286
REMARK  124  A    between atoms: _285  and  _288
REMARK  125  A    between atoms: _288  and  _289
REMARK  126  A    between atoms: _292  and  _294
REMARK  127  A    between atoms: _294  and  _295
REMARK  128  A    between atoms: _294  and  _297
REMARK  129  A    between atoms: _297  and  _298
REMARK  130  A    between atoms: _301  and  _303
REMARK  131  A    between atoms: _303  and  _304
REMARK  132  A    between atoms: _307  and  _309
REMARK  133  A    between atoms: _309  and  _310
REMARK  134  A    between atoms: _312  and  _314
REMARK  135  A    between atoms: _314  and  _315
REMARK  136  A    between atoms: _314  and  _317
REMARK  137  A    between atoms: _317  and  _318
REMARK  138  A    between atoms: _318  and  _319
REMARK                            x       y       z     vdW  Elec       q    Type
REMARK                         _______ _______ _______ _____ _____    ______ ____
ROOT
ATOM      1  O   HOH     1      69.015  56.455  15.916  0.00  0.00    +0.000 OA
ENDROOT
TORSDOF 0
REMARK  Name = ../refined-set-2016/1lan/1lan_pocket.pdb
REMARK  138 active torsions:
REMARK  status: ('A' for Active; 'I' for Inactive)
REMARK    1  A    between atoms: _1  and  _3
REMARK    2  A    between atoms: _3  and  _4
REMARK    3  A    between atoms: _3  and  _6
REMARK    4  A    between atoms: _6  and  _7
REMARK    5  A    between atoms: _7  and  _8
REMARK    6  A    between atoms: _8  and  _9
REMARK    7  A    between atoms: _9  and  _10
REMARK    8  A    between atoms: _14  and  _16
REMARK    9  A    between atoms: _16  and  _17
REMARK   10  A    between atoms: _16  and  _19
REMARK   11  A    between atoms: _19  and  _20
REMARK   12  A    between atoms: _23  and  _25
REMARK   13  A    between atoms: _25  and  _26
REMARK   14  A    between atoms: _25  and  _28
REMARK   15  A    between atoms: _28  and  _29
REMARK   16  A    between atoms: _35  and  _37
REMARK   17  A    between atoms: _37  and  _38
REMARK   18  A    between atoms: _37  and  _40
REMARK   19  A    between atoms: _40  and  _41
REMARK   20  A    between atoms: _41  and  _43
REMARK   21  A    between atoms: _43  and  ZN_321
REMARK   22  A    between atoms: _44  and  _46
REMARK   23  A    between atoms: _46  and  _47
REMARK   24  A    between atoms: _46  and  _49
REMARK   25  A    between atoms: _49  and  _50
REMARK   26  A    between atoms: _52  and  _54
REMARK   27  A    between atoms: _54  and  _55
REMARK   28  A    between atoms: _57  and  _59
REMARK   29  A    between atoms: _59  and  _60
REMARK   30  A    between atoms: _59  and  _62
REMARK   31  A    between atoms: _62  and  _63
REMARK   32  A    between atoms: _65  and  _67
REMARK   33  A    between atoms: _67  and  _68
REMARK   34  A    between atoms: _67  and  _70
REMARK   35  A    between atoms: _70  and  _71
REMARK   36  A    between atoms: _71  and  _72
REMARK   37  A    between atoms: _72  and  _73
REMARK   38  A    between atoms: _73  and  _74
REMARK   39  A    between atoms: _78  and  _80
REMARK   40  A    between atoms: _80  and  _81
REMARK   41  A    between atoms: _80  and  _83
REMARK   42  A    between atoms: _83  and  _84
REMARK   43  A    between atoms: _87  and  _89
REMARK   44  A    between atoms: _89  and  _90
REMARK   45  A    between atoms: _89  and  _92
REMARK   46  A    between atoms: _92  and  _93
REMARK   47  A    between atoms: _93  and  _94
REMARK   48  A    between atoms: _96  and  _98
REMARK   49  A    between atoms: _98  and  _99
REMARK   50  A    between atoms: _102  and  _104
REMARK   51  A    between atoms: _104  and  _105
REMARK   52  A    between atoms: _104  and  _107
REMARK   53  A    between atoms: _107  and  _108
REMARK   54  A    between atoms: _108  and  _110
REMARK   55  A    between atoms: _110  and  ZN_322
REMARK   56  A    between atoms: _111  and  _113
REMARK   57  A    between atoms: _113  and  _114
REMARK   58  A    between atoms: _113  and  _116
REMARK   59  A    between atoms: _116  and  _117
REMARK   60  A    between atoms: _117  and  _118
REMARK   61  A    between atoms: _120  and  _122
REMARK   62  A    between atoms: _122  and  _123
REMARK   63  A    between atoms: _125  and  _127
REMARK   64  A    between atoms: _127  and  _128
REMARK   65  A    between atoms: _127  and  _130
REMARK   66  A    between atoms: _130  and  _131
REMARK   67  A    between atoms: _136  and  _138
REMARK   68  A    between atoms: _138  and  _139
REMARK   69  A    between atoms: _138  and  _141
REMARK   70  A    between atoms: _141  and  _142
REMARK   71  A    between atoms: _147  and  _149
REMARK   72  A    between atoms: _149  and  _150
REMARK   73  A    between atoms: _149  and  _152
REMARK   74  A    between atoms: _152  and  _153
REMARK   75  A    between atoms: _156  and  _158
REMARK   76  A    between atoms: _173  and  _174
REMARK   77  A    between atoms: _178  and  _180
REMARK   78  A    between atoms: _180  and  ZN_322
REMARK   79  A    between atoms: _181  and  _183
REMARK   80  A    between atoms: _183  and  _184
REMARK   81  A    between atoms: _186  and  _188
REMARK   82  A    between atoms: _188  and  _189
REMARK   83  A    between atoms: _188  and  _191
REMARK   84  A    between atoms: _191  and  _192
REMARK   85  A    between atoms: _192  and  _193
REMARK   86  A    between atoms: _193  and  _194
REMARK   87  A    between atoms: _203  and  _205
REMARK   88  A    between atoms: _205  and  _206
REMARK   89  A    between atoms: _205  and  _208
REMARK   90  A    between atoms: _208  and  _209
REMARK   91  A    between atoms: _212  and  _214
REMARK   92  A    between atoms: _214  and  _215
REMARK   93  A    between atoms: _218  and  _220
REMARK   94  A    between atoms: _220  and  _221
REMARK   95  A    between atoms: _220  and  _223
REMARK   96  A    between atoms: _223  and  _224
REMARK   97  A    between atoms: _227  and  _229
REMARK   98  A    between atoms: _229  and  _230
REMARK   99  A    between atoms: _229  and  _232
REMARK  100  A    between atoms: _232  and  _233
REMARK  101  A    between atoms: _236  and  _238
REMARK  102  A    between atoms: _238  and  _239
REMARK  103  A    between atoms: _238  and  _241
REMARK  104  A    between atoms: _241  and  _242
REMARK  105  A    between atoms: _245  and  _247
REMARK  106  A    between atoms: _247  and  _248
REMARK  107  A    between atoms: _250  and  _252
REMARK  108  A    between atoms: _252  and  _253
REMARK  109  A    between atoms: _256  and  _258
REMARK  110  A    between atoms: _258  and  _259
REMARK  111  A    between atoms: _258  and  _261
REMARK  112  A    between atoms: _261  and  _262
REMARK  113  A    between atoms: _262  and  _263
REMARK  114  A    between atoms: _265  and  _267
REMARK  115  A    between atoms: _267  and  _268
REMARK  116  A    between atoms: _267  and  _270
REMARK  117  A    between atoms: _270  and  _271
REMARK  118  A    between atoms: _274  and  _276
REMARK  119  A    between atoms: _276  and  _277
REMARK  120  A    between atoms: _276  and  _279
REMARK  121  A    between atoms: _279  and  _280
REMARK  122  A    between atoms: _283  and  _285
REMARK  123  A    between atoms: _285  and  _286
REMARK  124  A    between atoms: _285  and  _288
REMARK  125  A    between atoms: _288  and  _289
REMARK  126  A    between atoms: _292  and  _294
REMARK  127  A    between atoms: _294  and  _295
REMARK  128  A    between atoms: _294  and  _297
REMARK  129  A    between atoms: _297  and  _298
REMARK  130  A    between atoms: _301  and  _303
REMARK  131  A    between atoms: _303  and  _304
REMARK  132  A    between atoms: _307  and  _309
REMARK  133  A    between atoms: _309  and  _310
REMARK  134  A    between atoms: _312  and  _314
REMARK  135  A    between atoms: _314  and  _315
REMARK  136  A    between atoms: _314  and  _317
REMARK  137  A    between atoms: _317  and  _318
REMARK  138  A    between atoms: _318  and  _319
REMARK                            x       y       z     vdW  Elec       q    Type
REMARK                         _______ _______ _______ _____ _____    ______ ____
ROOT
ATOM      1  O   HOH     1      66.749  55.564  15.377  0.00  0.00    +0.000 OA
ENDROOT
TORSDOF 0
REMARK  Name = ../refined-set-2016/1lan/1lan_pocket.pdb
REMARK  138 active torsions:
REMARK  status: ('A' for Active; 'I' for Inactive)
REMARK    1  A    between atoms: _1  and  _3
REMARK    2  A    between atoms: _3  and  _4
REMARK    3  A    between atoms: _3  and  _6
REMARK    4  A    between atoms: _6  and  _7
REMARK    5  A    between atoms: _7  and  _8
REMARK    6  A    between atoms: _8  and  _9
REMARK    7  A    between atoms: _9  and  _10
REMARK    8  A    between atoms: _14  and  _16
REMARK    9  A    between atoms: _16  and  _17
REMARK   10  A    between atoms: _16  and  _19
REMARK   11  A    between atoms: _19  and  _20
REMARK   12  A    between atoms: _23  and  _25
REMARK   13  A    between atoms: _25  and  _26
REMARK   14  A    between atoms: _25  and  _28
REMARK   15  A    between atoms: _28  and  _29
REMARK   16  A    between atoms: _35  and  _37
REMARK   17  A    between atoms: _37  and  _38
REMARK   18  A    between atoms: _37  and  _40
REMARK   19  A    between atoms: _40  and  _41
REMARK   20  A    between atoms: _41  and  _43
REMARK   21  A    between atoms: _43  and  ZN_321
REMARK   22  A    between atoms: _44  and  _46
REMARK   23  A    between atoms: _46  and  _47
REMARK   24  A    between atoms: _46  and  _49
REMARK   25  A    between atoms: _49  and  _50
REMARK   26  A    between atoms: _52  and  _54
REMARK   27  A    between atoms: _54  and  _55
REMARK   28  A    between atoms: _57  and  _59
REMARK   29  A    between atoms: _59  and  _60
REMARK   30  A    between atoms: _59  and  _62
REMARK   31  A    between atoms: _62  and  _63
REMARK   32  A    between atoms: _65  and  _67
REMARK   33  A    between atoms: _67  and  _68
REMARK   34  A    between atoms: _67  and  _70
REMARK   35  A    between atoms: _70  and  _71
REMARK   36  A    between atoms: _71  and  _72
REMARK   37  A    between atoms: _72  and  _73
REMARK   38  A    between atoms: _73  and  _74
REMARK   39  A    between atoms: _78  and  _80
REMARK   40  A    between atoms: _80  and  _81
REMARK   41  A    between atoms: _80  and  _83
REMARK   42  A    between atoms: _83  and  _84
REMARK   43  A    between atoms: _87  and  _89
REMARK   44  A    between atoms: _89  and  _90
REMARK   45  A    between atoms: _89  and  _92
REMARK   46  A    between atoms: _92  and  _93
REMARK   47  A    between atoms: _93  and  _94
REMARK   48  A    between atoms: _96  and  _98
REMARK   49  A    between atoms: _98  and  _99
REMARK   50  A    between atoms: _102  and  _104
REMARK   51  A    between atoms: _104  and  _105
REMARK   52  A    between atoms: _104  and  _107
REMARK   53  A    between atoms: _107  and  _108
REMARK   54  A    between atoms: _108  and  _110
REMARK   55  A    between atoms: _110  and  ZN_322
REMARK   56  A    between atoms: _111  and  _113
REMARK   57  A    between atoms: _113  and  _114
REMARK   58  A    between atoms: _113  and  _116
REMARK   59  A    between atoms: _116  and  _117
REMARK   60  A    between atoms: _117  and  _118
REMARK   61  A    between atoms: _120  and  _122
REMARK   62  A    between atoms: _122  and  _123
REMARK   63  A    between atoms: _125  and  _127
REMARK   64  A    between atoms: _127  and  _128
REMARK   65  A    between atoms: _127  and  _130
REMARK   66  A    between atoms: _130  and  _131
REMARK   67  A    between atoms: _136  and  _138
REMARK   68  A    between atoms: _138  and  _139
REMARK   69  A    between atoms: _138  and  _141
REMARK   70  A    between atoms: _141  and  _142
REMARK   71  A    between atoms: _147  and  _149
REMARK   72  A    between atoms: _149  and  _150
REMARK   73  A    between atoms: _149  and  _152
REMARK   74  A    between atoms: _152  and  _153
REMARK   75  A    between atoms: _156  and  _158
REMARK   76  A    between atoms: _173  and  _174
REMARK   77  A    between atoms: _178  and  _180
REMARK   78  A    between atoms: _180  and  ZN_322
REMARK   79  A    between atoms: _181  and  _183
REMARK   80  A    between atoms: _183  and  _184
REMARK   81  A    between atoms: _186  and  _188
REMARK   82  A    between atoms: _188  and  _189
REMARK   83  A    between atoms: _188  and  _191
REMARK   84  A    between atoms: _191  and  _192
REMARK   85  A    between atoms: _192  and  _193
REMARK   86  A    between atoms: _193  and  _194
REMARK   87  A    between atoms: _203  and  _205
REMARK   88  A    between atoms: _205  and  _206
REMARK   89  A    between atoms: _205  and  _208
REMARK   90  A    between atoms: _208  and  _209
REMARK   91  A    between atoms: _212  and  _214
REMARK   92  A    between atoms: _214  and  _215
REMARK   93  A    between atoms: _218  and  _220
REMARK   94  A    between atoms: _220  and  _221
REMARK   95  A    between atoms: _220  and  _223
REMARK   96  A    between atoms: _223  and  _224
REMARK   97  A    between atoms: _227  and  _229
REMARK   98  A    between atoms: _229  and  _230
REMARK   99  A    between atoms: _229  and  _232
REMARK  100  A    between atoms: _232  and  _233
REMARK  101  A    between atoms: _236  and  _238
REMARK  102  A    between atoms: _238  and  _239
REMARK  103  A    between atoms: _238  and  _241
REMARK  104  A    between atoms: _241  and  _242
REMARK  105  A    between atoms: _245  and  _247
REMARK  106  A    between atoms: _247  and  _248
REMARK  107  A    between atoms: _250  and  _252
REMARK  108  A    between atoms: _252  and  _253
REMARK  109  A    between atoms: _256  and  _258
REMARK  110  A    between atoms: _258  and  _259
REMARK  111  A    between atoms: _258  and  _261
REMARK  112  A    between atoms: _261  and  _262
REMARK  113  A    between atoms: _262  and  _263
REMARK  114  A    between atoms: _265  and  _267
REMARK  115  A    between atoms: _267  and  _268
REMARK  116  A    between atoms: _267  and  _270
REMARK  117  A    between atoms: _270  and  _271
REMARK  118  A    between atoms: _274  and  _276
REMARK  119  A    between atoms: _276  and  _277
REMARK  120  A    between atoms: _276  and  _279
REMARK  121  A    between atoms: _279  and  _280
REMARK  122  A    between atoms: _283  and  _285
REMARK  123  A    between atoms: _285  and  _286
REMARK  124  A    between atoms: _285  and  _288
REMARK  125  A    between atoms: _288  and  _289
REMARK  126  A    between atoms: _292  and  _294
REMARK  127  A    between atoms: _294  and  _295
REMARK  128  A    between atoms: _294  and  _297
REMARK  129  A    between atoms: _297  and  _298
REMARK  130  A    between atoms: _301  and  _303
REMARK  131  A    between atoms: _303  and  _304
REMARK  132  A    between atoms: _307  and  _309
REMARK  133  A    between atoms: _309  and  _310
REMARK  134  A    between atoms: _312  and  _314
REMARK  135  A    between atoms: _314  and  _315
REMARK  136  A    between atoms: _314  and  _317
REMARK  137  A    between atoms: _317  and  _318
REMARK  138  A    between atoms: _318  and  _319
REMARK                            x       y       z     vdW  Elec       q    Type
REMARK                         _______ _______ _______ _____ _____    ______ ____
ROOT
ATOM      1  O   HOH     1      68.174  55.203  18.783  0.00  0.00    +0.000 OA
ENDROOT
TORSDOF 0
REMARK  Name = ../refined-set-2016/1lan/1lan_pocket.pdb
REMARK  138 active torsions:
REMARK  status: ('A' for Active; 'I' for Inactive)
REMARK    1  A    between atoms: _1  and  _3
REMARK    2  A    between atoms: _3  and  _4
REMARK    3  A    between atoms: _3  and  _6
REMARK    4  A    between atoms: _6  and  _7
REMARK    5  A    between atoms: _7  and  _8
REMARK    6  A    between atoms: _8  and  _9
REMARK    7  A    between atoms: _9  and  _10
REMARK    8  A    between atoms: _14  and  _16
REMARK    9  A    between atoms: _16  and  _17
REMARK   10  A    between atoms: _16  and  _19
REMARK   11  A    between atoms: _19  and  _20
REMARK   12  A    between atoms: _23  and  _25
REMARK   13  A    between atoms: _25  and  _26
REMARK   14  A    between atoms: _25  and  _28
REMARK   15  A    between atoms: _28  and  _29
REMARK   16  A    between atoms: _35  and  _37
REMARK   17  A    between atoms: _37  and  _38
REMARK   18  A    between atoms: _37  and  _40
REMARK   19  A    between atoms: _40  and  _41
REMARK   20  A    between atoms: _41  and  _43
REMARK   21  A    between atoms: _43  and  ZN_321
REMARK   22  A    between atoms: _44  and  _46
REMARK   23  A    between atoms: _46  and  _47
REMARK   24  A    between atoms: _46  and  _49
REMARK   25  A    between atoms: _49  and  _50
REMARK   26  A    between atoms: _52  and  _54
REMARK   27  A    between atoms: _54  and  _55
REMARK   28  A    between atoms: _57  and  _59
REMARK   29  A    between atoms: _59  and  _60
REMARK   30  A    between atoms: _59  and  _62
REMARK   31  A    between atoms: _62  and  _63
REMARK   32  A    between atoms: _65  and  _67
REMARK   33  A    between atoms: _67  and  _68
REMARK   34  A    between atoms: _67  and  _70
REMARK   35  A    between atoms: _70  and  _71
REMARK   36  A    between atoms: _71  and  _72
REMARK   37  A    between atoms: _72  and  _73
REMARK   38  A    between atoms: _73  and  _74
REMARK   39  A    between atoms: _78  and  _80
REMARK   40  A    between atoms: _80  and  _81
REMARK   41  A    between atoms: _80  and  _83
REMARK   42  A    between atoms: _83  and  _84
REMARK   43  A    between atoms: _87  and  _89
REMARK   44  A    between atoms: _89  and  _90
REMARK   45  A    between atoms: _89  and  _92
REMARK   46  A    between atoms: _92  and  _93
REMARK   47  A    between atoms: _93  and  _94
REMARK   48  A    between atoms: _96  and  _98
REMARK   49  A    between atoms: _98  and  _99
REMARK   50  A    between atoms: _102  and  _104
REMARK   51  A    between atoms: _104  and  _105
REMARK   52  A    between atoms: _104  and  _107
REMARK   53  A    between atoms: _107  and  _108
REMARK   54  A    between atoms: _108  and  _110
REMARK   55  A    between atoms: _110  and  ZN_322
REMARK   56  A    between atoms: _111  and  _113
REMARK   57  A    between atoms: _113  and  _114
REMARK   58  A    between atoms: _113  and  _116
REMARK   59  A    between atoms: _116  and  _117
REMARK   60  A    between atoms: _117  and  _118
REMARK   61  A    between atoms: _120  and  _122
REMARK   62  A    between atoms: _122  and  _123
REMARK   63  A    between atoms: _125  and  _127
REMARK   64  A    between atoms: _127  and  _128
REMARK   65  A    between atoms: _127  and  _130
REMARK   66  A    between atoms: _130  and  _131
REMARK   67  A    between atoms: _136  and  _138
REMARK   68  A    between atoms: _138  and  _139
REMARK   69  A    between atoms: _138  and  _141
REMARK   70  A    between atoms: _141  and  _142
REMARK   71  A    between atoms: _147  and  _149
REMARK   72  A    between atoms: _149  and  _150
REMARK   73  A    between atoms: _149  and  _152
REMARK   74  A    between atoms: _152  and  _153
REMARK   75  A    between atoms: _156  and  _158
REMARK   76  A    between atoms: _173  and  _174
REMARK   77  A    between atoms: _178  and  _180
REMARK   78  A    between atoms: _180  and  ZN_322
REMARK   79  A    between atoms: _181  and  _183
REMARK   80  A    between atoms: _183  and  _184
REMARK   81  A    between atoms: _186  and  _188
REMARK   82  A    between atoms: _188  and  _189
REMARK   83  A    between atoms: _188  and  _191
REMARK   84  A    between atoms: _191  and  _192
REMARK   85  A    between atoms: _192  and  _193
REMARK   86  A    between atoms: _193  and  _194
REMARK   87  A    between atoms: _203  and  _205
REMARK   88  A    between atoms: _205  and  _206
REMARK   89  A    between atoms: _205  and  _208
REMARK   90  A    between atoms: _208  and  _209
REMARK   91  A    between atoms: _212  and  _214
REMARK   92  A    between atoms: _214  and  _215
REMARK   93  A    between atoms: _218  and  _220
REMARK   94  A    between atoms: _220  and  _221
REMARK   95  A    between atoms: _220  and  _223
REMARK   96  A    between atoms: _223  and  _224
REMARK   97  A    between atoms: _227  and  _229
REMARK   98  A    between atoms: _229  and  _230
REMARK   99  A    between atoms: _229  and  _232
REMARK  100  A    between atoms: _232  and  _233
REMARK  101  A    between atoms: _236  and  _238
REMARK  102  A    between atoms: _238  and  _239
REMARK  103  A    between atoms: _238  and  _241
REMARK  104  A    between atoms: _241  and  _242
REMARK  105  A    between atoms: _245  and  _247
REMARK  106  A    between atoms: _247  and  _248
REMARK  107  A    between atoms: _250  and  _252
REMARK  108  A    between atoms: _252  and  _253
REMARK  109  A    between atoms: _256  and  _258
REMARK  110  A    between atoms: _258  and  _259
REMARK  111  A    between atoms: _258  and  _261
REMARK  112  A    between atoms: _261  and  _262
REMARK  113  A    between atoms: _262  and  _263
REMARK  114  A    between atoms: _265  and  _267
REMARK  115  A    between atoms: _267  and  _268
REMARK  116  A    between atoms: _267  and  _270
REMARK  117  A    between atoms: _270  and  _271
REMARK  118  A    between atoms: _274  and  _276
REMARK  119  A    between atoms: _276  and  _277
REMARK  120  A    between atoms: _276  and  _279
REMARK  121  A    between atoms: _279  and  _280
REMARK  122  A    between atoms: _283  and  _285
REMARK  123  A    between atoms: _285  and  _286
REMARK  124  A    between atoms: _285  and  _288
REMARK  125  A    between atoms: _288  and  _289
REMARK  126  A    between atoms: _292  and  _294
REMARK  127  A    between atoms: _294  and  _295
REMARK  128  A    between atoms: _294  and  _297
REMARK  129  A    between atoms: _297  and  _298
REMARK  130  A    between atoms: _301  and  _303
REMARK  131  A    between atoms: _303  and  _304
REMARK  132  A    between atoms: _307  and  _309
REMARK  133  A    between atoms: _309  and  _310
REMARK  134  A    between atoms: _312  and  _314
REMARK  135  A    between atoms: _314  and  _315
REMARK  136  A    between atoms: _314  and  _317
REMARK  137  A    between atoms: _317  and  _318
REMARK  138  A    between atoms: _318  and  _319
REMARK                            x       y       z     vdW  Elec       q    Type
REMARK                         _______ _______ _______ _____ _____    ______ ____
ROOT
ATOM      1  O   HOH     1      59.481  48.639  20.143  0.00  0.00    +0.000 OA
ENDROOT
TORSDOF 0
REMARK  Name = ../refined-set-2016/1lan/1lan_pocket.pdb
REMARK  138 active torsions:
REMARK  status: ('A' for Active; 'I' for Inactive)
REMARK    1  A    between atoms: _1  and  _3
REMARK    2  A    between atoms: _3  and  _4
REMARK    3  A    between atoms: _3  and  _6
REMARK    4  A    between atoms: _6  and  _7
REMARK    5  A    between atoms: _7  and  _8
REMARK    6  A    between atoms: _8  and  _9
REMARK    7  A    between atoms: _9  and  _10
REMARK    8  A    between atoms: _14  and  _16
REMARK    9  A    between atoms: _16  and  _17
REMARK   10  A    between atoms: _16  and  _19
REMARK   11  A    between atoms: _19  and  _20
REMARK   12  A    between atoms: _23  and  _25
REMARK   13  A    between atoms: _25  and  _26
REMARK   14  A    between atoms: _25  and  _28
REMARK   15  A    between atoms: _28  and  _29
REMARK   16  A    between atoms: _35  and  _37
REMARK   17  A    between atoms: _37  and  _38
REMARK   18  A    between atoms: _37  and  _40
REMARK   19  A    between atoms: _40  and  _41
REMARK   20  A    between atoms: _41  and  _43
REMARK   21  A    between atoms: _43  and  ZN_321
REMARK   22  A    between atoms: _44  and  _46
REMARK   23  A    between atoms: _46  and  _47
REMARK   24  A    between atoms: _46  and  _49
REMARK   25  A    between atoms: _49  and  _50
REMARK   26  A    between atoms: _52  and  _54
REMARK   27  A    between atoms: _54  and  _55
REMARK   28  A    between atoms: _57  and  _59
REMARK   29  A    between atoms: _59  and  _60
REMARK   30  A    between atoms: _59  and  _62
REMARK   31  A    between atoms: _62  and  _63
REMARK   32  A    between atoms: _65  and  _67
REMARK   33  A    between atoms: _67  and  _68
REMARK   34  A    between atoms: _67  and  _70
REMARK   35  A    between atoms: _70  and  _71
REMARK   36  A    between atoms: _71  and  _72
REMARK   37  A    between atoms: _72  and  _73
REMARK   38  A    between atoms: _73  and  _74
REMARK   39  A    between atoms: _78  and  _80
REMARK   40  A    between atoms: _80  and  _81
REMARK   41  A    between atoms: _80  and  _83
REMARK   42  A    between atoms: _83  and  _84
REMARK   43  A    between atoms: _87  and  _89
REMARK   44  A    between atoms: _89  and  _90
REMARK   45  A    between atoms: _89  and  _92
REMARK   46  A    between atoms: _92  and  _93
REMARK   47  A    between atoms: _93  and  _94
REMARK   48  A    between atoms: _96  and  _98
REMARK   49  A    between atoms: _98  and  _99
REMARK   50  A    between atoms: _102  and  _104
REMARK   51  A    between atoms: _104  and  _105
REMARK   52  A    between atoms: _104  and  _107
REMARK   53  A    between atoms: _107  and  _108
REMARK   54  A    between atoms: _108  and  _110
REMARK   55  A    between atoms: _110  and  ZN_322
REMARK   56  A    between atoms: _111  and  _113
REMARK   57  A    between atoms: _113  and  _114
REMARK   58  A    between atoms: _113  and  _116
REMARK   59  A    between atoms: _116  and  _117
REMARK   60  A    between atoms: _117  and  _118
REMARK   61  A    between atoms: _120  and  _122
REMARK   62  A    between atoms: _122  and  _123
REMARK   63  A    between atoms: _125  and  _127
REMARK   64  A    between atoms: _127  and  _128
REMARK   65  A    between atoms: _127  and  _130
REMARK   66  A    between atoms: _130  and  _131
REMARK   67  A    between atoms: _136  and  _138
REMARK   68  A    between atoms: _138  and  _139
REMARK   69  A    between atoms: _138  and  _141
REMARK   70  A    between atoms: _141  and  _142
REMARK   71  A    between atoms: _147  and  _149
REMARK   72  A    between atoms: _149  and  _150
REMARK   73  A    between atoms: _149  and  _152
REMARK   74  A    between atoms: _152  and  _153
REMARK   75  A    between atoms: _156  and  _158
REMARK   76  A    between atoms: _173  and  _174
REMARK   77  A    between atoms: _178  and  _180
REMARK   78  A    between atoms: _180  and  ZN_322
REMARK   79  A    between atoms: _181  and  _183
REMARK   80  A    between atoms: _183  and  _184
REMARK   81  A    between atoms: _186  and  _188
REMARK   82  A    between atoms: _188  and  _189
REMARK   83  A    between atoms: _188  and  _191
REMARK   84  A    between atoms: _191  and  _192
REMARK   85  A    between atoms: _192  and  _193
REMARK   86  A    between atoms: _193  and  _194
REMARK   87  A    between atoms: _203  and  _205
REMARK   88  A    between atoms: _205  and  _206
REMARK   89  A    between atoms: _205  and  _208
REMARK   90  A    between atoms: _208  and  _209
REMARK   91  A    between atoms: _212  and  _214
REMARK   92  A    between atoms: _214  and  _215
REMARK   93  A    between atoms: _218  and  _220
REMARK   94  A    between atoms: _220  and  _221
REMARK   95  A    between atoms: _220  and  _223
REMARK   96  A    between atoms: _223  and  _224
REMARK   97  A    between atoms: _227  and  _229
REMARK   98  A    between atoms: _229  and  _230
REMARK   99  A    between atoms: _229  and  _232
REMARK  100  A    between atoms: _232  and  _233
REMARK  101  A    between atoms: _236  and  _238
REMARK  102  A    between atoms: _238  and  _239
REMARK  103  A    between atoms: _238  and  _241
REMARK  104  A    between atoms: _241  and  _242
REMARK  105  A    between atoms: _245  and  _247
REMARK  106  A    between atoms: _247  and  _248
REMARK  107  A    between atoms: _250  and  _252
REMARK  108  A    between atoms: _252  and  _253
REMARK  109  A    between atoms: _256  and  _258
REMARK  110  A    between atoms: _258  and  _259
REMARK  111  A    between atoms: _258  and  _261
REMARK  112  A    between atoms: _261  and  _262
REMARK  113  A    between atoms: _262  and  _263
REMARK  114  A    between atoms: _265  and  _267
REMARK  115  A    between atoms: _267  and  _268
REMARK  116  A    between atoms: _267  and  _270
REMARK  117  A    between atoms: _270  and  _271
REMARK  118  A    between atoms: _274  and  _276
REMARK  119  A    between atoms: _276  and  _277
REMARK  120  A    between atoms: _276  and  _279
REMARK  121  A    between atoms: _279  and  _280
REMARK  122  A    between atoms: _283  and  _285
REMARK  123  A    between atoms: _285  and  _286
REMARK  124  A    between atoms: _285  and  _288
REMARK  125  A    between atoms: _288  and  _289
REMARK  126  A    between atoms: _292  and  _294
REMARK  127  A    between atoms: _294  and  _295
REMARK  128  A    between atoms: _294  and  _297
REMARK  129  A    between atoms: _297  and  _298
REMARK  130  A    between atoms: _301  and  _303
REMARK  131  A    between atoms: _303  and  _304
REMARK  132  A    between atoms: _307  and  _309
REMARK  133  A    between atoms: _309  and  _310
REMARK  134  A    between atoms: _312  and  _314
REMARK  135  A    between atoms: _314  and  _315
REMARK  136  A    between atoms: _314  and  _317
REMARK  137  A    between atoms: _317  and  _318
REMARK  138  A    between atoms: _318  and  _319
REMARK                            x       y       z     vdW  Elec       q    Type
REMARK                         _______ _______ _______ _____ _____    ______ ____
ROOT
ATOM      1  O   HOH     1      56.598  55.964  22.692  0.00  0.00    +0.000 OA
ENDROOT
TORSDOF 0
