REMARK  Name = ../refined-set-2016/4h3g/4h3g_pocket.pdb
REMARK  217 active torsions:
REMARK  status: ('A' for Active; 'I' for Inactive)
REMARK    1  A    between atoms: _1  and  _3
REMARK    2  A    between atoms: _3  and  _4
REMARK    3  A    between atoms: _3  and  _6
REMARK    4  A    between atoms: _6  and  _7
REMARK    5  A    between atoms: _7  and  _8
REMARK    6  A    between atoms: _8  and  _9
REMARK    7  A    between atoms: _9  and  _10
REMARK    8  A    between atoms: _14  and  _16
REMARK    9  A    between atoms: _16  and  _17
REMARK   10  A    between atoms: _16  and  _19
REMARK   11  A    between atoms: _19  and  _20
REMARK   12  A    between atoms: _22  and  _24
REMARK   13  A    between atoms: _24  and  _25
REMARK   14  A    between atoms: _27  and  _29
REMARK   15  A    between atoms: _29  and  _30
REMARK   16  A    between atoms: _29  and  _32
REMARK   17  A    between atoms: _32  and  _33
REMARK   18  A    between atoms: _33  and  _34
REMARK   19  A    between atoms: _39  and  _41
REMARK   20  A    between atoms: _41  and  _42
REMARK   21  A    between atoms: _44  and  _46
REMARK   22  A    between atoms: _46  and  _47
REMARK   23  A    between atoms: _46  and  _49
REMARK   24  A    between atoms: _49  and  _50
REMARK   25  A    between atoms: _55  and  _56
REMARK   26  A    between atoms: _58  and  _60
REMARK   27  A    between atoms: _60  and  _61
REMARK   28  A    between atoms: _60  and  _63
REMARK   29  A    between atoms: _63  and  _64
REMARK   30  A    between atoms: _67  and  _69
REMARK   31  A    between atoms: _69  and  _70
REMARK   32  A    between atoms: _69  and  _72
REMARK   33  A    between atoms: _75  and  _77
REMARK   34  A    between atoms: _77  and  _78
REMARK   35  A    between atoms: _77  and  _80
REMARK   36  A    between atoms: _80  and  _81
REMARK   37  A    between atoms: _84  and  _86
REMARK   38  A    between atoms: _86  and  _87
REMARK   39  A    between atoms: _86  and  _89
REMARK   40  A    between atoms: _89  and  _90
REMARK   41  A    between atoms: _93  and  _95
REMARK   42  A    between atoms: _95  and  _96
REMARK   43  A    between atoms: _98  and  _100
REMARK   44  A    between atoms: _100  and  _101
REMARK   45  A    between atoms: _100  and  _103
REMARK   46  A    between atoms: _103  and  _104
REMARK   47  A    between atoms: _106  and  _108
REMARK   48  A    between atoms: _108  and  _109
REMARK   49  A    between atoms: _108  and  _111
REMARK   50  A    between atoms: _111  and  _112
REMARK   51  A    between atoms: _114  and  _116
REMARK   52  A    between atoms: _116  and  _117
REMARK   53  A    between atoms: _116  and  _119
REMARK   54  A    between atoms: _119  and  _120
REMARK   55  A    between atoms: _125  and  _127
REMARK   56  A    between atoms: _127  and  _128
REMARK   57  A    between atoms: _127  and  _130
REMARK   58  A    between atoms: _130  and  _131
REMARK   59  A    between atoms: _137  and  _139
REMARK   60  A    between atoms: _139  and  _140
REMARK   61  A    between atoms: _143  and  _145
REMARK   62  A    between atoms: _145  and  _146
REMARK   63  A    between atoms: _145  and  _148
REMARK   64  A    between atoms: _151  and  _153
REMARK   65  A    between atoms: _153  and  _154
REMARK   66  A    between atoms: _153  and  _156
REMARK   67  A    between atoms: _156  and  _157
REMARK   68  A    between atoms: _162  and  _163
REMARK   69  A    between atoms: _165  and  _167
REMARK   70  A    between atoms: _167  and  _168
REMARK   71  A    between atoms: _167  and  _170
REMARK   72  A    between atoms: _174  and  _175
REMARK   73  A    between atoms: _180  and  _182
REMARK   74  A    between atoms: _182  and  _183
REMARK   75  A    between atoms: _182  and  _185
REMARK   76  A    between atoms: _185  and  _186
REMARK   77  A    between atoms: _191  and  _192
REMARK   78  A    between atoms: _194  and  _196
REMARK   79  A    between atoms: _196  and  _197
REMARK   80  A    between atoms: _196  and  _199
REMARK   81  A    between atoms: _199  and  _200
REMARK   82  A    between atoms: _203  and  _205
REMARK   83  A    between atoms: _205  and  _206
REMARK   84  A    between atoms: _205  and  _208
REMARK   85  A    between atoms: _208  and  _209
REMARK   86  A    between atoms: _209  and  _210
REMARK   87  A    between atoms: _215  and  _217
REMARK   88  A    between atoms: _217  and  _218
REMARK   89  A    between atoms: _220  and  _222
REMARK   90  A    between atoms: _222  and  _223
REMARK   91  A    between atoms: _222  and  _225
REMARK   92  A    between atoms: _225  and  _226
REMARK   93  A    between atoms: _226  and  _227
REMARK   94  A    between atoms: _227  and  _228
REMARK   95  A    between atoms: _228  and  _229
REMARK   96  A    between atoms: _233  and  _235
REMARK   97  A    between atoms: _235  and  _236
REMARK   98  A    between atoms: _235  and  _238
REMARK   99  A    between atoms: _238  and  _239
REMARK  100  A    between atoms: _249  and  _251
REMARK  101  A    between atoms: _251  and  _252
REMARK  102  A    between atoms: _251  and  _254
REMARK  103  A    between atoms: _254  and  _255
REMARK  104  A    between atoms: _258  and  _260
REMARK  105  A    between atoms: _260  and  _261
REMARK  106  A    between atoms: _260  and  _263
REMARK  107  A    between atoms: _263  and  _264
REMARK  108  A    between atoms: _264  and  _265
REMARK  109  A    between atoms: _265  and  _266
REMARK  110  A    between atoms: _266  and  _267
REMARK  111  A    between atoms: _271  and  _273
REMARK  112  A    between atoms: _273  and  _274
REMARK  113  A    between atoms: _273  and  _276
REMARK  114  A    between atoms: _276  and  _277
REMARK  115  A    between atoms: _283  and  _285
REMARK  116  A    between atoms: _285  and  _286
REMARK  117  A    between atoms: _285  and  _288
REMARK  118  A    between atoms: _288  and  _289
REMARK  119  A    between atoms: _295  and  _297
REMARK  120  A    between atoms: _297  and  _298
REMARK  121  A    between atoms: _297  and  _300
REMARK  122  A    between atoms: _300  and  _301
REMARK  123  A    between atoms: _304  and  _306
REMARK  124  A    between atoms: _306  and  _307
REMARK  125  A    between atoms: _306  and  _309
REMARK  126  A    between atoms: _309  and  _310
REMARK  127  A    between atoms: _312  and  _314
REMARK  128  A    between atoms: _314  and  _315
REMARK  129  A    between atoms: _314  and  _317
REMARK  130  A    between atoms: _317  and  _318
REMARK  131  A    between atoms: _328  and  _330
REMARK  132  A    between atoms: _330  and  _331
REMARK  133  A    between atoms: _333  and  _335
REMARK  134  A    between atoms: _335  and  _336
REMARK  135  A    between atoms: _335  and  _338
REMARK  136  A    between atoms: _338  and  _339
REMARK  137  A    between atoms: _342  and  _344
REMARK  138  A    between atoms: _344  and  _345
REMARK  139  A    between atoms: _344  and  _347
REMARK  140  A    between atoms: _347  and  _348
REMARK  141  A    between atoms: _351  and  _353
REMARK  142  A    between atoms: _353  and  _354
REMARK  143  A    between atoms: _356  and  _358
REMARK  144  A    between atoms: _358  and  _359
REMARK  145  A    between atoms: _358  and  _361
REMARK  146  A    between atoms: _361  and  _362
REMARK  147  A    between atoms: _365  and  _367
REMARK  148  A    between atoms: _367  and  _368
REMARK  149  A    between atoms: _367  and  _370
REMARK  150  A    between atoms: _370  and  _371
REMARK  151  A    between atoms: _374  and  _376
REMARK  152  A    between atoms: _376  and  _377
REMARK  153  A    between atoms: _380  and  _382
REMARK  154  A    between atoms: _382  and  _383
REMARK  155  A    between atoms: _382  and  _385
REMARK  156  A    between atoms: _385  and  _386
REMARK  157  A    between atoms: _386  and  _387
REMARK  158  A    between atoms: _387  and  _388
REMARK  159  A    between atoms: _397  and  _399
REMARK  160  A    between atoms: _399  and  _400
REMARK  161  A    between atoms: _399  and  _402
REMARK  162  A    between atoms: _402  and  _403
REMARK  163  A    between atoms: _406  and  _408
REMARK  164  A    between atoms: _408  and  _409
REMARK  165  A    between atoms: _408  and  _411
REMARK  166  A    between atoms: _411  and  _412
REMARK  167  A    between atoms: _417  and  _418
REMARK  168  A    between atoms: _420  and  _422
REMARK  169  A    between atoms: _422  and  _423
REMARK  170  A    between atoms: _422  and  _425
REMARK  171  A    between atoms: _425  and  _426
REMARK  172  A    between atoms: _429  and  _431
REMARK  173  A    between atoms: _431  and  _432
REMARK  174  A    between atoms: _431  and  _434
REMARK  175  A    between atoms: _437  and  _439
REMARK  176  A    between atoms: _439  and  _440
REMARK  177  A    between atoms: _439  and  _442
REMARK  178  A    between atoms: _442  and  _443
REMARK  179  A    between atoms: _446  and  _448
REMARK  180  A    between atoms: _448  and  _449
REMARK  181  A    between atoms: _448  and  _451
REMARK  182  A    between atoms: _451  and  _452
REMARK  183  A    between atoms: _454  and  _456
REMARK  184  A    between atoms: _456  and  _457
REMARK  185  A    between atoms: _459  and  _461
REMARK  186  A    between atoms: _461  and  _462
REMARK  187  A    between atoms: _461  and  _464
REMARK  188  A    between atoms: _464  and  _465
REMARK  189  A    between atoms: _468  and  _470
REMARK  190  A    between atoms: _470  and  _471
REMARK  191  A    between atoms: _470  and  _473
REMARK  192  A    between atoms: _473  and  _474
REMARK  193  A    between atoms: _477  and  _479
REMARK  194  A    between atoms: _479  and  _480
REMARK  195  A    between atoms: _479  and  _482
REMARK  196  A    between atoms: _482  and  _483
REMARK  197  A    between atoms: _488  and  _490
REMARK  198  A    between atoms: _490  and  _491
REMARK  199  A    between atoms: _490  and  _493
REMARK  200  A    between atoms: _493  and  _494
REMARK  201  A    between atoms: _494  and  _495
REMARK  202  A    between atoms: _495  and  _496
REMARK  203  A    between atoms: _505  and  _507
REMARK  204  A    between atoms: _507  and  _508
REMARK  205  A    between atoms: _507  and  _510
REMARK  206  A    between atoms: _513  and  _515
REMARK  207  A    between atoms: _515  and  _516
REMARK  208  A    between atoms: _518  and  _520
REMARK  209  A    between atoms: _520  and  _521
REMARK  210  A    between atoms: _524  and  _526
REMARK  211  A    between atoms: _526  and  _527
REMARK  212  A    between atoms: _526  and  _529
REMARK  213  A    between atoms: _532  and  _534
REMARK  214  A    between atoms: _534  and  _535
REMARK  215  A    between atoms: _534  and  _537
REMARK  216  A    between atoms: _537  and  _538
REMARK  217  A    between atoms: _538  and  _539
REMARK                            x       y       z     vdW  Elec       q    Type
REMARK                         _______ _______ _______ _____ _____    ______ ____
ROOT
ATOM      1  CA  GLN A   4      33.001  10.493  18.546  0.00  0.00    +0.149 C 
ENDROOT
BRANCH   1   4
ATOM      2  C   GLY A   3      33.692  11.968  20.345  0.00  0.00    +0.243 C 
ATOM      3  O   GLY A   3      32.871  12.823  20.002  0.00  0.00    -0.273 OA
ATOM      4  N   GLN A   4      33.821  10.805  19.713  0.00  0.00    -0.297 N 
ATOM      5  H   GLN A   4      34.515  10.109  20.054  0.00  0.00    +0.150 HD
BRANCH   2   6
ATOM      6  CA  GLY A   3      34.607  12.211  21.535  0.00  0.00    +0.176 C 
BRANCH   6   9
ATOM      7  C   SER A   2      34.072  10.291  22.899  0.00  0.00    +0.243 C 
ATOM      8  O   SER A   2      32.876  10.574  22.880  0.00  0.00    -0.273 OA
ATOM      9  N   GLY A   3      34.993  11.017  22.272  0.00  0.00    -0.295 N 
ATOM     10  H   GLY A   3      35.992  10.731  22.308  0.00  0.00    +0.150 HD
BRANCH   7  11
ATOM     11  CA  SER A   2      34.553   9.061  23.666  0.00  0.00    +0.178 C 
BRANCH  11  13
ATOM     12  C   LYS A   1      35.469   7.853  21.760  0.00  0.00    +0.238 C 
ATOM     13  N   SER A   2      35.598   8.271  23.014  0.00  0.00    -0.295 N 
ATOM     14  H   SER A   2      36.460   8.032  23.544  0.00  0.00    +0.150 HD
ATOM     15  O   LYS A   1      34.499   8.143  21.066  0.00  0.00    -0.274 OA
BRANCH  12  16
ATOM     16  CA  LYS A   1      36.588   6.973  21.192  0.00  0.00    +0.145 C 
BRANCH  16  17
ATOM     17  N   LYS A   1      36.044   6.246  20.048  0.00  0.00    -0.238 NA
ATOM     18  H   LYS A   1      35.192   6.619  19.583  0.00  0.00    +0.142 HD
ENDBRANCH  16  17
BRANCH  16  19
ATOM     19  CB  LYS A   1      37.799   7.812  20.759  0.00  0.00    +0.026 C 
BRANCH  19  20
ATOM     20  CG  LYS A   1      37.538   8.805  19.626  0.00  0.00    -0.000 C 
BRANCH  20  21
ATOM     21  CD  LYS A   1      38.845   9.490  19.237  0.00  0.00    -0.024 C 
BRANCH  21  22
ATOM     22  CE  LYS A   1      38.652  10.511  18.123  0.00  0.00    -0.086 C 
BRANCH  22  23
ATOM     23  NZ  LYS A   1      39.930  11.232  17.851  0.00  0.00    +0.380 N 
ATOM     24  HZ1 LYS A   1      40.239  11.725  18.713  0.00  0.00    -0.089 HD
ATOM     25  HZ2 LYS A   1      40.658  10.548  17.562  0.00  0.00    -0.089 HD
ATOM     26  HZ3 LYS A   1      39.781  11.924  17.089  0.00  0.00    -0.089 HD
ENDBRANCH  22  23
ENDBRANCH  21  22
ENDBRANCH  20  21
ENDBRANCH  19  20
ENDBRANCH  16  19
ENDBRANCH  12  16
ENDBRANCH  11  13
BRANCH  11  27
ATOM     27  CB  SER A   2      34.998   9.475  25.076  0.00  0.00    +0.166 C 
BRANCH  27  28
ATOM     28  OG  SER A   2      36.137  10.318  25.044  0.00  0.00    -0.380 OA
ATOM     29  H   SER A   2      36.392  10.562  25.969  0.00  0.00    +0.211 HD
ENDBRANCH  27  28
ENDBRANCH  11  27
ENDBRANCH   7  11
ENDBRANCH   6   9
ENDBRANCH   2   6
ENDBRANCH   1   4
BRANCH   1  30
ATOM     30  C   GLN A   4      32.053   9.326  18.787  0.00  0.00    +0.241 C 
ATOM     31  N   GLY A   5      32.160   8.712  19.961  0.00  0.00    -0.295 N 
ATOM     32  H   GLY A   5      32.866   9.041  20.650  0.00  0.00    +0.150 HD
ATOM     33  O   GLN A   4      31.236   9.005  17.931  0.00  0.00    -0.273 OA
BRANCH  31  34
ATOM     34  CA  GLY A   5      31.303   7.587  20.295  0.00  0.00    +0.176 C 
BRANCH  34  35
ATOM     35  C   GLY A   5      31.925   6.253  19.931  0.00  0.00    +0.243 C 
ATOM     36  N   TYR A   6      31.424   5.181  20.535  0.00  0.00    -0.298 N 
ATOM     37  H   TYR A   6      30.653   5.303  21.222  0.00  0.00    +0.150 HD
ATOM     38  O   GLY A   5      32.842   6.192  19.113  0.00  0.00    -0.273 OA
BRANCH  36  39
ATOM     39  CA  TYR A   6      31.926   3.833  20.261  0.00  0.00    +0.141 C 
BRANCH  39  40
ATOM     40  C   TYR A   6      30.892   3.085  19.424  0.00  0.00    +0.227 C 
ATOM     41  O   TYR A   6      29.699   3.178  19.688  0.00  0.00    -0.286 OA
ENDBRANCH  39  40
BRANCH  39  42
ATOM     42  CB  TYR A   6      32.160   3.088  21.567  0.00  0.00    +0.054 C 
BRANCH  42  43
ATOM     43  CG  TYR A   6      33.335   3.620  22.342  0.00  0.00    -0.020 A 
ATOM     44  CD2 TYR A   6      33.199   4.695  23.211  0.00  0.00    -0.001 A 
ATOM     45  CE2 TYR A   6      34.297   5.191  23.907  0.00  0.00    +0.036 A 
ATOM     46  CZ  TYR A   6      35.535   4.608  23.732  0.00  0.00    +0.134 A 
ATOM     47  CE1 TYR A   6      35.688   3.543  22.871  0.00  0.00    +0.036 A 
ATOM     48  CD1 TYR A   6      34.592   3.056  22.185  0.00  0.00    -0.001 A 
BRANCH  46  49
ATOM     49  OH  TYR A   6      36.636   5.069  24.431  0.00  0.00    -0.506 OA
ATOM     50  HH  TYR A   6      36.367   5.831  25.003  0.00  0.00    +0.292 HD
ENDBRANCH  46  49
ENDBRANCH  42  43
ENDBRANCH  39  42
ENDBRANCH  36  39
ENDBRANCH  34  35
ENDBRANCH  31  34
ENDBRANCH   1  30
BRANCH   1  51
ATOM     51  CB  GLN A   4      33.897  10.185  17.341  0.00  0.00    +0.039 C 
BRANCH  51  52
ATOM     52  CG  GLN A   4      34.807  11.344  16.939  0.00  0.00    +0.087 C 
BRANCH  52  53
ATOM     53  CD  GLN A   4      35.521  11.095  15.621  0.00  0.00    +0.219 C 
ATOM     54  OE1 GLN A   4      36.276  10.128  15.478  0.00  0.00    -0.275 OA
ATOM     55  NE2 GLN A   4      35.282  11.969  14.646  0.00  0.00    -0.329 N 
ATOM     56 HE21 GLN A   4      34.638  12.769  14.811  0.00  0.00    +0.145 HD
ATOM     57 HE22 GLN A   4      35.739  11.852  13.719  0.00  0.00    +0.145 HD
ENDBRANCH  52  53
ENDBRANCH  51  52
ENDBRANCH   1  51
TORSDOF 25
REMARK  Name = ../refined-set-2016/4h3g/4h3g_pocket.pdb
REMARK  217 active torsions:
REMARK  status: ('A' for Active; 'I' for Inactive)
REMARK    1  A    between atoms: _1  and  _3
REMARK    2  A    between atoms: _3  and  _4
REMARK    3  A    between atoms: _3  and  _6
REMARK    4  A    between atoms: _6  and  _7
REMARK    5  A    between atoms: _7  and  _8
REMARK    6  A    between atoms: _8  and  _9
REMARK    7  A    between atoms: _9  and  _10
REMARK    8  A    between atoms: _14  and  _16
REMARK    9  A    between atoms: _16  and  _17
REMARK   10  A    between atoms: _16  and  _19
REMARK   11  A    between atoms: _19  and  _20
REMARK   12  A    between atoms: _22  and  _24
REMARK   13  A    between atoms: _24  and  _25
REMARK   14  A    between atoms: _27  and  _29
REMARK   15  A    between atoms: _29  and  _30
REMARK   16  A    between atoms: _29  and  _32
REMARK   17  A    between atoms: _32  and  _33
REMARK   18  A    between atoms: _33  and  _34
REMARK   19  A    between atoms: _39  and  _41
REMARK   20  A    between atoms: _41  and  _42
REMARK   21  A    between atoms: _44  and  _46
REMARK   22  A    between atoms: _46  and  _47
REMARK   23  A    between atoms: _46  and  _49
REMARK   24  A    between atoms: _49  and  _50
REMARK   25  A    between atoms: _55  and  _56
REMARK   26  A    between atoms: _58  and  _60
REMARK   27  A    between atoms: _60  and  _61
REMARK   28  A    between atoms: _60  and  _63
REMARK   29  A    between atoms: _63  and  _64
REMARK   30  A    between atoms: _67  and  _69
REMARK   31  A    between atoms: _69  and  _70
REMARK   32  A    between atoms: _69  and  _72
REMARK   33  A    between atoms: _75  and  _77
REMARK   34  A    between atoms: _77  and  _78
REMARK   35  A    between atoms: _77  and  _80
REMARK   36  A    between atoms: _80  and  _81
REMARK   37  A    between atoms: _84  and  _86
REMARK   38  A    between atoms: _86  and  _87
REMARK   39  A    between atoms: _86  and  _89
REMARK   40  A    between atoms: _89  and  _90
REMARK   41  A    between atoms: _93  and  _95
REMARK   42  A    between atoms: _95  and  _96
REMARK   43  A    between atoms: _98  and  _100
REMARK   44  A    between atoms: _100  and  _101
REMARK   45  A    between atoms: _100  and  _103
REMARK   46  A    between atoms: _103  and  _104
REMARK   47  A    between atoms: _106  and  _108
REMARK   48  A    between atoms: _108  and  _109
REMARK   49  A    between atoms: _108  and  _111
REMARK   50  A    between atoms: _111  and  _112
REMARK   51  A    between atoms: _114  and  _116
REMARK   52  A    between atoms: _116  and  _117
REMARK   53  A    between atoms: _116  and  _119
REMARK   54  A    between atoms: _119  and  _120
REMARK   55  A    between atoms: _125  and  _127
REMARK   56  A    between atoms: _127  and  _128
REMARK   57  A    between atoms: _127  and  _130
REMARK   58  A    between atoms: _130  and  _131
REMARK   59  A    between atoms: _137  and  _139
REMARK   60  A    between atoms: _139  and  _140
REMARK   61  A    between atoms: _143  and  _145
REMARK   62  A    between atoms: _145  and  _146
REMARK   63  A    between atoms: _145  and  _148
REMARK   64  A    between atoms: _151  and  _153
REMARK   65  A    between atoms: _153  and  _154
REMARK   66  A    between atoms: _153  and  _156
REMARK   67  A    between atoms: _156  and  _157
REMARK   68  A    between atoms: _162  and  _163
REMARK   69  A    between atoms: _165  and  _167
REMARK   70  A    between atoms: _167  and  _168
REMARK   71  A    between atoms: _167  and  _170
REMARK   72  A    between atoms: _174  and  _175
REMARK   73  A    between atoms: _180  and  _182
REMARK   74  A    between atoms: _182  and  _183
REMARK   75  A    between atoms: _182  and  _185
REMARK   76  A    between atoms: _185  and  _186
REMARK   77  A    between atoms: _191  and  _192
REMARK   78  A    between atoms: _194  and  _196
REMARK   79  A    between atoms: _196  and  _197
REMARK   80  A    between atoms: _196  and  _199
REMARK   81  A    between atoms: _199  and  _200
REMARK   82  A    between atoms: _203  and  _205
REMARK   83  A    between atoms: _205  and  _206
REMARK   84  A    between atoms: _205  and  _208
REMARK   85  A    between atoms: _208  and  _209
REMARK   86  A    between atoms: _209  and  _210
REMARK   87  A    between atoms: _215  and  _217
REMARK   88  A    between atoms: _217  and  _218
REMARK   89  A    between atoms: _220  and  _222
REMARK   90  A    between atoms: _222  and  _223
REMARK   91  A    between atoms: _222  and  _225
REMARK   92  A    between atoms: _225  and  _226
REMARK   93  A    between atoms: _226  and  _227
REMARK   94  A    between atoms: _227  and  _228
REMARK   95  A    between atoms: _228  and  _229
REMARK   96  A    between atoms: _233  and  _235
REMARK   97  A    between atoms: _235  and  _236
REMARK   98  A    between atoms: _235  and  _238
REMARK   99  A    between atoms: _238  and  _239
REMARK  100  A    between atoms: _249  and  _251
REMARK  101  A    between atoms: _251  and  _252
REMARK  102  A    between atoms: _251  and  _254
REMARK  103  A    between atoms: _254  and  _255
REMARK  104  A    between atoms: _258  and  _260
REMARK  105  A    between atoms: _260  and  _261
REMARK  106  A    between atoms: _260  and  _263
REMARK  107  A    between atoms: _263  and  _264
REMARK  108  A    between atoms: _264  and  _265
REMARK  109  A    between atoms: _265  and  _266
REMARK  110  A    between atoms: _266  and  _267
REMARK  111  A    between atoms: _271  and  _273
REMARK  112  A    between atoms: _273  and  _274
REMARK  113  A    between atoms: _273  and  _276
REMARK  114  A    between atoms: _276  and  _277
REMARK  115  A    between atoms: _283  and  _285
REMARK  116  A    between atoms: _285  and  _286
REMARK  117  A    between atoms: _285  and  _288
REMARK  118  A    between atoms: _288  and  _289
REMARK  119  A    between atoms: _295  and  _297
REMARK  120  A    between atoms: _297  and  _298
REMARK  121  A    between atoms: _297  and  _300
REMARK  122  A    between atoms: _300  and  _301
REMARK  123  A    between atoms: _304  and  _306
REMARK  124  A    between atoms: _306  and  _307
REMARK  125  A    between atoms: _306  and  _309
REMARK  126  A    between atoms: _309  and  _310
REMARK  127  A    between atoms: _312  and  _314
REMARK  128  A    between atoms: _314  and  _315
REMARK  129  A    between atoms: _314  and  _317
REMARK  130  A    between atoms: _317  and  _318
REMARK  131  A    between atoms: _328  and  _330
REMARK  132  A    between atoms: _330  and  _331
REMARK  133  A    between atoms: _333  and  _335
REMARK  134  A    between atoms: _335  and  _336
REMARK  135  A    between atoms: _335  and  _338
REMARK  136  A    between atoms: _338  and  _339
REMARK  137  A    between atoms: _342  and  _344
REMARK  138  A    between atoms: _344  and  _345
REMARK  139  A    between atoms: _344  and  _347
REMARK  140  A    between atoms: _347  and  _348
REMARK  141  A    between atoms: _351  and  _353
REMARK  142  A    between atoms: _353  and  _354
REMARK  143  A    between atoms: _356  and  _358
REMARK  144  A    between atoms: _358  and  _359
REMARK  145  A    between atoms: _358  and  _361
REMARK  146  A    between atoms: _361  and  _362
REMARK  147  A    between atoms: _365  and  _367
REMARK  148  A    between atoms: _367  and  _368
REMARK  149  A    between atoms: _367  and  _370
REMARK  150  A    between atoms: _370  and  _371
REMARK  151  A    between atoms: _374  and  _376
REMARK  152  A    between atoms: _376  and  _377
REMARK  153  A    between atoms: _380  and  _382
REMARK  154  A    between atoms: _382  and  _383
REMARK  155  A    between atoms: _382  and  _385
REMARK  156  A    between atoms: _385  and  _386
REMARK  157  A    between atoms: _386  and  _387
REMARK  158  A    between atoms: _387  and  _388
REMARK  159  A    between atoms: _397  and  _399
REMARK  160  A    between atoms: _399  and  _400
REMARK  161  A    between atoms: _399  and  _402
REMARK  162  A    between atoms: _402  and  _403
REMARK  163  A    between atoms: _406  and  _408
REMARK  164  A    between atoms: _408  and  _409
REMARK  165  A    between atoms: _408  and  _411
REMARK  166  A    between atoms: _411  and  _412
REMARK  167  A    between atoms: _417  and  _418
REMARK  168  A    between atoms: _420  and  _422
REMARK  169  A    between atoms: _422  and  _423
REMARK  170  A    between atoms: _422  and  _425
REMARK  171  A    between atoms: _425  and  _426
REMARK  172  A    between atoms: _429  and  _431
REMARK  173  A    between atoms: _431  and  _432
REMARK  174  A    between atoms: _431  and  _434
REMARK  175  A    between atoms: _437  and  _439
REMARK  176  A    between atoms: _439  and  _440
REMARK  177  A    between atoms: _439  and  _442
REMARK  178  A    between atoms: _442  and  _443
REMARK  179  A    between atoms: _446  and  _448
REMARK  180  A    between atoms: _448  and  _449
REMARK  181  A    between atoms: _448  and  _451
REMARK  182  A    between atoms: _451  and  _452
REMARK  183  A    between atoms: _454  and  _456
REMARK  184  A    between atoms: _456  and  _457
REMARK  185  A    between atoms: _459  and  _461
REMARK  186  A    between atoms: _461  and  _462
REMARK  187  A    between atoms: _461  and  _464
REMARK  188  A    between atoms: _464  and  _465
REMARK  189  A    between atoms: _468  and  _470
REMARK  190  A    between atoms: _470  and  _471
REMARK  191  A    between atoms: _470  and  _473
REMARK  192  A    between atoms: _473  and  _474
REMARK  193  A    between atoms: _477  and  _479
REMARK  194  A    between atoms: _479  and  _480
REMARK  195  A    between atoms: _479  and  _482
REMARK  196  A    between atoms: _482  and  _483
REMARK  197  A    between atoms: _488  and  _490
REMARK  198  A    between atoms: _490  and  _491
REMARK  199  A    between atoms: _490  and  _493
REMARK  200  A    between atoms: _493  and  _494
REMARK  201  A    between atoms: _494  and  _495
REMARK  202  A    between atoms: _495  and  _496
REMARK  203  A    between atoms: _505  and  _507
REMARK  204  A    between atoms: _507  and  _508
REMARK  205  A    between atoms: _507  and  _510
REMARK  206  A    between atoms: _513  and  _515
REMARK  207  A    between atoms: _515  and  _516
REMARK  208  A    between atoms: _518  and  _520
REMARK  209  A    between atoms: _520  and  _521
REMARK  210  A    between atoms: _524  and  _526
REMARK  211  A    between atoms: _526  and  _527
REMARK  212  A    between atoms: _526  and  _529
REMARK  213  A    between atoms: _532  and  _534
REMARK  214  A    between atoms: _534  and  _535
REMARK  215  A    between atoms: _534  and  _537
REMARK  216  A    between atoms: _537  and  _538
REMARK  217  A    between atoms: _538  and  _539
REMARK                            x       y       z     vdW  Elec       q    Type
REMARK                         _______ _______ _______ _____ _____    ______ ____
ROOT
ATOM      1  CA  SER A   6      18.185   6.081  23.791  0.00  0.00    +0.178 C 
ENDROOT
BRANCH   1   4
ATOM      2  C   GLY A   5      19.681   6.915  25.534  0.00  0.00    +0.243 C 
ATOM      3  O   GLY A   5      19.045   7.967  25.607  0.00  0.00    -0.273 OA
ATOM      4  N   SER A   6      19.366   5.962  24.662  0.00  0.00    -0.295 N 
ATOM      5  H   SER A   6      19.966   5.115  24.594  0.00  0.00    +0.150 HD
BRANCH   2   6
ATOM      6  CA  GLY A   5      20.900   6.673  26.431  0.00  0.00    +0.176 C 
BRANCH   6   9
ATOM      7  C   THR A   4      21.596   4.357  26.745  0.00  0.00    +0.243 C 
ATOM      8  O   THR A   4      20.835   4.202  27.700  0.00  0.00    -0.273 OA
ATOM      9  N   GLY A   5      21.700   5.504  26.072  0.00  0.00    -0.295 N 
ATOM     10  H   GLY A   5      22.365   5.568  25.275  0.00  0.00    +0.150 HD
BRANCH   7  11
ATOM     11  CA  THR A   4      22.486   3.201  26.271  0.00  0.00    +0.176 C 
BRANCH  11  13
ATOM     12  C   ASP A   3      22.907   3.749  23.956  0.00  0.00    +0.241 C 
ATOM     13  N   THR A   4      23.374   3.638  25.197  0.00  0.00    -0.295 N 
ATOM     14  H   THR A   4      24.369   3.862  25.402  0.00  0.00    +0.150 HD
ATOM     15  O   ASP A   3      21.744   3.469  23.666  0.00  0.00    -0.273 OA
BRANCH  12  16
ATOM     16  CA  ASP A   3      23.880   4.240  22.877  0.00  0.00    +0.160 C 
BRANCH  16  19
ATOM     17  C   VAL A   2      25.774   3.077  21.847  0.00  0.00    +0.241 C 
ATOM     18  O   VAL A   2      26.596   3.774  22.447  0.00  0.00    -0.273 OA
ATOM     19  N   ASP A   3      24.456   3.197  22.020  0.00  0.00    -0.297 N 
ATOM     20  H   ASP A   3      23.820   2.533  21.534  0.00  0.00    +0.150 HD
BRANCH  17  21
ATOM     21  CA  VAL A   2      26.242   2.009  20.855  0.00  0.00    +0.148 C 
BRANCH  21  23
ATOM     22  C   LEU A   1      26.162   3.103  18.676  0.00  0.00    +0.238 C 
ATOM     23  N   VAL A   2      26.869   2.690  19.725  0.00  0.00    -0.297 N 
ATOM     24  H   VAL A   2      27.895   2.857  19.741  0.00  0.00    +0.150 HD
ATOM     25  O   LEU A   1      24.939   2.955  18.602  0.00  0.00    -0.274 OA
BRANCH  22  26
ATOM     26  CA  LEU A   1      26.938   3.798  17.551  0.00  0.00    +0.145 C 
BRANCH  26  27
ATOM     27  N   LEU A   1      26.642   3.193  16.248  0.00  0.00    -0.238 NA
ATOM     28  H   LEU A   1      26.198   3.783  15.516  0.00  0.00    +0.142 HD
ENDBRANCH  26  27
BRANCH  26  29
ATOM     29  CB  LEU A   1      26.546   5.283  17.527  0.00  0.00    +0.026 C 
BRANCH  29  30
ATOM     30  CG  LEU A   1      26.710   6.057  18.842  0.00  0.00    +0.002 C 
ATOM     31  CD2 LEU A   1      28.185   6.250  19.118  0.00  0.00    +0.000 C 
ATOM     32  CD1 LEU A   1      26.004   7.415  18.743  0.00  0.00    +0.000 C 
ENDBRANCH  29  30
ENDBRANCH  26  29
ENDBRANCH  22  26
ENDBRANCH  21  23
BRANCH  21  33
ATOM     33  CB  VAL A   2      27.256   1.039  21.505  0.00  0.00    +0.027 C 
ATOM     34  CG2 VAL A   2      26.662   0.394  22.732  0.00  0.00    +0.002 C 
ATOM     35  CG1 VAL A   2      27.666  -0.032  20.469  0.00  0.00    +0.002 C 
ENDBRANCH  21  33
ENDBRANCH  17  21
ENDBRANCH  16  19
BRANCH  16  36
ATOM     36  CB  ASP A   3      23.186   5.265  21.956  0.00  0.00    +0.143 C 
BRANCH  36  37
ATOM     37  CG  ASP A   3      22.646   6.481  22.695  0.00  0.00    +0.367 C 
ATOM     38  OD2 ASP A   3      23.056   6.727  23.826  0.00  0.00    -0.246 OA
ATOM     39  OD1 ASP A   3      21.818   7.187  22.112  0.00  0.00    -0.246 OA
ENDBRANCH  36  37
ENDBRANCH  16  36
ENDBRANCH  12  16
ENDBRANCH  11  13
BRANCH  11  40
ATOM     40  CB  THR A   4      23.266   2.629  27.500  0.00  0.00    +0.137 C 
ATOM     41  CG2 THR A   4      24.147   1.465  27.075  0.00  0.00    +0.034 C 
BRANCH  40  42
ATOM     42  OG1 THR A   4      24.083   3.654  28.093  0.00  0.00    -0.382 OA
ATOM     43  HG1 THR A   4      23.507   4.401  28.394  0.00  0.00    +0.210 HD
ENDBRANCH  40  42
ENDBRANCH  11  40
ENDBRANCH   7  11
ENDBRANCH   6   9
ENDBRANCH   2   6
ENDBRANCH   1   4
BRANCH   1  44
ATOM     44  C   SER A   6      17.684   4.681  23.454  0.00  0.00    +0.243 C 
ATOM     45  O   SER A   6      18.318   3.702  23.835  0.00  0.00    -0.273 OA
ATOM     46  N   SER A   7      16.563   4.573  22.740  0.00  0.00    -0.295 N 
ATOM     47  H   SER A   7      16.097   5.425  22.367  0.00  0.00    +0.150 HD
BRANCH  46  48
ATOM     48  CA  SER A   7      15.991   3.250  22.483  0.00  0.00    +0.178 C 
BRANCH  48  49
ATOM     49  C   SER A   7      15.567   2.895  21.057  0.00  0.00    +0.243 C 
ATOM     50  O   SER A   7      14.816   1.934  20.855  0.00  0.00    -0.273 OA
ATOM     51  N   ASN A   8      16.036   3.659  20.077  0.00  0.00    -0.297 N 
ATOM     52  H   ASN A   8      16.643   4.470  20.311  0.00  0.00    +0.150 HD
BRANCH  51  53
ATOM     53  CA  ASN A   8      15.719   3.386  18.678  0.00  0.00    +0.158 C 
BRANCH  53  54
ATOM     54  C   ASN A   8      16.923   2.862  17.911  0.00  0.00    +0.241 C 
ATOM     55  O   ASN A   8      18.060   3.249  18.179  0.00  0.00    -0.273 OA
ATOM     56  N   PHE A   9      16.654   1.982  16.953  0.00  0.00    -0.297 N 
ATOM     57  H   PHE A   9      15.674   1.655  16.831  0.00  0.00    +0.150 HD
BRANCH  56  58
ATOM     58  CA  PHE A   9      17.685   1.461  16.069  0.00  0.00    +0.153 C 
BRANCH  58  59
ATOM     59  C   PHE A   9      17.391   2.276  14.808  0.00  0.00    +0.241 C 
ATOM     60  N   ALA A  10      18.319   3.143  14.428  0.00  0.00    -0.298 N 
ATOM     61  H   ALA A  10      19.204   3.219  14.969  0.00  0.00    +0.150 HD
ATOM     62  O   PHE A   9      16.319   2.155  14.212  0.00  0.00    -0.273 OA
BRANCH  60  63
ATOM     63  CA  ALA A  10      18.113   3.991  13.261  0.00  0.00    +0.137 C 
ATOM     64  CB  ALA A  10      17.717   5.401  13.701  0.00  0.00    +0.030 C 
BRANCH  63  65
ATOM     65  C   ALA A  10      19.388   4.040  12.464  0.00  0.00    +0.227 C 
ATOM     66  O   ALA A  10      20.474   4.142  13.035  0.00  0.00    -0.286 OA
ENDBRANCH  63  65
ENDBRANCH  60  63
ENDBRANCH  58  59
BRANCH  58  67
ATOM     67  CB  PHE A   9      17.480  -0.036  15.799  0.00  0.00    +0.055 C 
BRANCH  67  68
ATOM     68  CG  PHE A   9      18.489  -0.621  14.843  0.00  0.00    -0.020 A 
ATOM     69  CD2 PHE A   9      19.802  -0.172  14.836  0.00  0.00    -0.004 A 
ATOM     70  CE2 PHE A   9      20.741  -0.713  13.959  0.00  0.00    -0.000 A 
ATOM     71  CZ  PHE A   9      20.366  -1.711  13.079  0.00  0.00    -0.000 A 
ATOM     72  CE1 PHE A   9      19.056  -2.169  13.076  0.00  0.00    -0.000 A 
ATOM     73  CD1 PHE A   9      18.125  -1.626  13.955  0.00  0.00    -0.004 A 
ENDBRANCH  67  68
ENDBRANCH  58  67
ENDBRANCH  56  58
ENDBRANCH  53  54
BRANCH  53  74
ATOM     74  CB  ASN A   8      15.263   4.649  17.951  0.00  0.00    +0.114 C 
BRANCH  74  75
ATOM     75  CG  ASN A   8      13.860   5.046  18.301  0.00  0.00    +0.222 C 
ATOM     76  OD1 ASN A   8      13.607   5.594  19.378  0.00  0.00    -0.275 OA
ATOM     77  ND2 ASN A   8      12.922   4.765  17.392  0.00  0.00    -0.329 N 
ATOM     78 HD21 ASN A   8      11.928   5.009  17.578  0.00  0.00    +0.145 HD
ATOM     79 HD22 ASN A   8      13.186   4.302  16.499  0.00  0.00    +0.145 HD
ENDBRANCH  74  75
ENDBRANCH  53  74
ENDBRANCH  51  53
ENDBRANCH  48  49
BRANCH  48  80
ATOM     80  CB  SER A   7      14.804   3.053  23.426  0.00  0.00    +0.166 C 
BRANCH  80  81
ATOM     81  OG  SER A   7      15.171   3.376  24.767  0.00  0.00    -0.380 OA
ATOM     82  H   SER A   7      14.391   3.243  25.362  0.00  0.00    +0.211 HD
ENDBRANCH  80  81
ENDBRANCH  48  80
ENDBRANCH  46  48
ENDBRANCH   1  44
BRANCH   1  83
ATOM     83  CB  SER A   6      18.482   6.896  22.518  0.00  0.00    +0.166 C 
BRANCH  83  84
ATOM     84  OG  SER A   6      19.385   6.255  21.633  0.00  0.00    -0.380 OA
ATOM     85  H   SER A   6      20.247   6.103  22.096  0.00  0.00    +0.211 HD
ENDBRANCH  83  84
ENDBRANCH   1  83
TORSDOF 35
REMARK  Name = ../refined-set-2016/4h3g/4h3g_pocket.pdb
REMARK  217 active torsions:
REMARK  status: ('A' for Active; 'I' for Inactive)
REMARK    1  A    between atoms: _1  and  _3
REMARK    2  A    between atoms: _3  and  _4
REMARK    3  A    between atoms: _3  and  _6
REMARK    4  A    between atoms: _6  and  _7
REMARK    5  A    between atoms: _7  and  _8
REMARK    6  A    between atoms: _8  and  _9
REMARK    7  A    between atoms: _9  and  _10
REMARK    8  A    between atoms: _14  and  _16
REMARK    9  A    between atoms: _16  and  _17
REMARK   10  A    between atoms: _16  and  _19
REMARK   11  A    between atoms: _19  and  _20
REMARK   12  A    between atoms: _22  and  _24
REMARK   13  A    between atoms: _24  and  _25
REMARK   14  A    between atoms: _27  and  _29
REMARK   15  A    between atoms: _29  and  _30
REMARK   16  A    between atoms: _29  and  _32
REMARK   17  A    between atoms: _32  and  _33
REMARK   18  A    between atoms: _33  and  _34
REMARK   19  A    between atoms: _39  and  _41
REMARK   20  A    between atoms: _41  and  _42
REMARK   21  A    between atoms: _44  and  _46
REMARK   22  A    between atoms: _46  and  _47
REMARK   23  A    between atoms: _46  and  _49
REMARK   24  A    between atoms: _49  and  _50
REMARK   25  A    between atoms: _55  and  _56
REMARK   26  A    between atoms: _58  and  _60
REMARK   27  A    between atoms: _60  and  _61
REMARK   28  A    between atoms: _60  and  _63
REMARK   29  A    between atoms: _63  and  _64
REMARK   30  A    between atoms: _67  and  _69
REMARK   31  A    between atoms: _69  and  _70
REMARK   32  A    between atoms: _69  and  _72
REMARK   33  A    between atoms: _75  and  _77
REMARK   34  A    between atoms: _77  and  _78
REMARK   35  A    between atoms: _77  and  _80
REMARK   36  A    between atoms: _80  and  _81
REMARK   37  A    between atoms: _84  and  _86
REMARK   38  A    between atoms: _86  and  _87
REMARK   39  A    between atoms: _86  and  _89
REMARK   40  A    between atoms: _89  and  _90
REMARK   41  A    between atoms: _93  and  _95
REMARK   42  A    between atoms: _95  and  _96
REMARK   43  A    between atoms: _98  and  _100
REMARK   44  A    between atoms: _100  and  _101
REMARK   45  A    between atoms: _100  and  _103
REMARK   46  A    between atoms: _103  and  _104
REMARK   47  A    between atoms: _106  and  _108
REMARK   48  A    between atoms: _108  and  _109
REMARK   49  A    between atoms: _108  and  _111
REMARK   50  A    between atoms: _111  and  _112
REMARK   51  A    between atoms: _114  and  _116
REMARK   52  A    between atoms: _116  and  _117
REMARK   53  A    between atoms: _116  and  _119
REMARK   54  A    between atoms: _119  and  _120
REMARK   55  A    between atoms: _125  and  _127
REMARK   56  A    between atoms: _127  and  _128
REMARK   57  A    between atoms: _127  and  _130
REMARK   58  A    between atoms: _130  and  _131
REMARK   59  A    between atoms: _137  and  _139
REMARK   60  A    between atoms: _139  and  _140
REMARK   61  A    between atoms: _143  and  _145
REMARK   62  A    between atoms: _145  and  _146
REMARK   63  A    between atoms: _145  and  _148
REMARK   64  A    between atoms: _151  and  _153
REMARK   65  A    between atoms: _153  and  _154
REMARK   66  A    between atoms: _153  and  _156
REMARK   67  A    between atoms: _156  and  _157
REMARK   68  A    between atoms: _162  and  _163
REMARK   69  A    between atoms: _165  and  _167
REMARK   70  A    between atoms: _167  and  _168
REMARK   71  A    between atoms: _167  and  _170
REMARK   72  A    between atoms: _174  and  _175
REMARK   73  A    between atoms: _180  and  _182
REMARK   74  A    between atoms: _182  and  _183
REMARK   75  A    between atoms: _182  and  _185
REMARK   76  A    between atoms: _185  and  _186
REMARK   77  A    between atoms: _191  and  _192
REMARK   78  A    between atoms: _194  and  _196
REMARK   79  A    between atoms: _196  and  _197
REMARK   80  A    between atoms: _196  and  _199
REMARK   81  A    between atoms: _199  and  _200
REMARK   82  A    between atoms: _203  and  _205
REMARK   83  A    between atoms: _205  and  _206
REMARK   84  A    between atoms: _205  and  _208
REMARK   85  A    between atoms: _208  and  _209
REMARK   86  A    between atoms: _209  and  _210
REMARK   87  A    between atoms: _215  and  _217
REMARK   88  A    between atoms: _217  and  _218
REMARK   89  A    between atoms: _220  and  _222
REMARK   90  A    between atoms: _222  and  _223
REMARK   91  A    between atoms: _222  and  _225
REMARK   92  A    between atoms: _225  and  _226
REMARK   93  A    between atoms: _226  and  _227
REMARK   94  A    between atoms: _227  and  _228
REMARK   95  A    between atoms: _228  and  _229
REMARK   96  A    between atoms: _233  and  _235
REMARK   97  A    between atoms: _235  and  _236
REMARK   98  A    between atoms: _235  and  _238
REMARK   99  A    between atoms: _238  and  _239
REMARK  100  A    between atoms: _249  and  _251
REMARK  101  A    between atoms: _251  and  _252
REMARK  102  A    between atoms: _251  and  _254
REMARK  103  A    between atoms: _254  and  _255
REMARK  104  A    between atoms: _258  and  _260
REMARK  105  A    between atoms: _260  and  _261
REMARK  106  A    between atoms: _260  and  _263
REMARK  107  A    between atoms: _263  and  _264
REMARK  108  A    between atoms: _264  and  _265
REMARK  109  A    between atoms: _265  and  _266
REMARK  110  A    between atoms: _266  and  _267
REMARK  111  A    between atoms: _271  and  _273
REMARK  112  A    between atoms: _273  and  _274
REMARK  113  A    between atoms: _273  and  _276
REMARK  114  A    between atoms: _276  and  _277
REMARK  115  A    between atoms: _283  and  _285
REMARK  116  A    between atoms: _285  and  _286
REMARK  117  A    between atoms: _285  and  _288
REMARK  118  A    between atoms: _288  and  _289
REMARK  119  A    between atoms: _295  and  _297
REMARK  120  A    between atoms: _297  and  _298
REMARK  121  A    between atoms: _297  and  _300
REMARK  122  A    between atoms: _300  and  _301
REMARK  123  A    between atoms: _304  and  _306
REMARK  124  A    between atoms: _306  and  _307
REMARK  125  A    between atoms: _306  and  _309
REMARK  126  A    between atoms: _309  and  _310
REMARK  127  A    between atoms: _312  and  _314
REMARK  128  A    between atoms: _314  and  _315
REMARK  129  A    between atoms: _314  and  _317
REMARK  130  A    between atoms: _317  and  _318
REMARK  131  A    between atoms: _328  and  _330
REMARK  132  A    between atoms: _330  and  _331
REMARK  133  A    between atoms: _333  and  _335
REMARK  134  A    between atoms: _335  and  _336
REMARK  135  A    between atoms: _335  and  _338
REMARK  136  A    between atoms: _338  and  _339
REMARK  137  A    between atoms: _342  and  _344
REMARK  138  A    between atoms: _344  and  _345
REMARK  139  A    between atoms: _344  and  _347
REMARK  140  A    between atoms: _347  and  _348
REMARK  141  A    between atoms: _351  and  _353
REMARK  142  A    between atoms: _353  and  _354
REMARK  143  A    between atoms: _356  and  _358
REMARK  144  A    between atoms: _358  and  _359
REMARK  145  A    between atoms: _358  and  _361
REMARK  146  A    between atoms: _361  and  _362
REMARK  147  A    between atoms: _365  and  _367
REMARK  148  A    between atoms: _367  and  _368
REMARK  149  A    between atoms: _367  and  _370
REMARK  150  A    between atoms: _370  and  _371
REMARK  151  A    between atoms: _374  and  _376
REMARK  152  A    between atoms: _376  and  _377
REMARK  153  A    between atoms: _380  and  _382
REMARK  154  A    between atoms: _382  and  _383
REMARK  155  A    between atoms: _382  and  _385
REMARK  156  A    between atoms: _385  and  _386
REMARK  157  A    between atoms: _386  and  _387
REMARK  158  A    between atoms: _387  and  _388
REMARK  159  A    between atoms: _397  and  _399
REMARK  160  A    between atoms: _399  and  _400
REMARK  161  A    between atoms: _399  and  _402
REMARK  162  A    between atoms: _402  and  _403
REMARK  163  A    between atoms: _406  and  _408
REMARK  164  A    between atoms: _408  and  _409
REMARK  165  A    between atoms: _408  and  _411
REMARK  166  A    between atoms: _411  and  _412
REMARK  167  A    between atoms: _417  and  _418
REMARK  168  A    between atoms: _420  and  _422
REMARK  169  A    between atoms: _422  and  _423
REMARK  170  A    between atoms: _422  and  _425
REMARK  171  A    between atoms: _425  and  _426
REMARK  172  A    between atoms: _429  and  _431
REMARK  173  A    between atoms: _431  and  _432
REMARK  174  A    between atoms: _431  and  _434
REMARK  175  A    between atoms: _437  and  _439
REMARK  176  A    between atoms: _439  and  _440
REMARK  177  A    between atoms: _439  and  _442
REMARK  178  A    between atoms: _442  and  _443
REMARK  179  A    between atoms: _446  and  _448
REMARK  180  A    between atoms: _448  and  _449
REMARK  181  A    between atoms: _448  and  _451
REMARK  182  A    between atoms: _451  and  _452
REMARK  183  A    between atoms: _454  and  _456
REMARK  184  A    between atoms: _456  and  _457
REMARK  185  A    between atoms: _459  and  _461
REMARK  186  A    between atoms: _461  and  _462
REMARK  187  A    between atoms: _461  and  _464
REMARK  188  A    between atoms: _464  and  _465
REMARK  189  A    between atoms: _468  and  _470
REMARK  190  A    between atoms: _470  and  _471
REMARK  191  A    between atoms: _470  and  _473
REMARK  192  A    between atoms: _473  and  _474
REMARK  193  A    between atoms: _477  and  _479
REMARK  194  A    between atoms: _479  and  _480
REMARK  195  A    between atoms: _479  and  _482
REMARK  196  A    between atoms: _482  and  _483
REMARK  197  A    between atoms: _488  and  _490
REMARK  198  A    between atoms: _490  and  _491
REMARK  199  A    between atoms: _490  and  _493
REMARK  200  A    between atoms: _493  and  _494
REMARK  201  A    between atoms: _494  and  _495
REMARK  202  A    between atoms: _495  and  _496
REMARK  203  A    between atoms: _505  and  _507
REMARK  204  A    between atoms: _507  and  _508
REMARK  205  A    between atoms: _507  and  _510
REMARK  206  A    between atoms: _513  and  _515
REMARK  207  A    between atoms: _515  and  _516
REMARK  208  A    between atoms: _518  and  _520
REMARK  209  A    between atoms: _520  and  _521
REMARK  210  A    between atoms: _524  and  _526
REMARK  211  A    between atoms: _526  and  _527
REMARK  212  A    between atoms: _526  and  _529
REMARK  213  A    between atoms: _532  and  _534
REMARK  214  A    between atoms: _534  and  _535
REMARK  215  A    between atoms: _534  and  _537
REMARK  216  A    between atoms: _537  and  _538
REMARK  217  A    between atoms: _538  and  _539
REMARK                            x       y       z     vdW  Elec       q    Type
REMARK                         _______ _______ _______ _____ _____    ______ ____
ROOT
ATOM      1  C   TYR A   5      17.935  17.655  20.550  0.00  0.00    +0.241 C 
ATOM      2  N   THR A   6      18.574  17.863  21.694  0.00  0.00    -0.295 N 
ATOM      3  H   THR A   6      18.493  17.164  22.460  0.00  0.00    +0.150 HD
ATOM      4  O   TYR A   5      18.016  18.431  19.593  0.00  0.00    -0.273 OA
ENDROOT
BRANCH   2   5
ATOM      5  CA  THR A   6      19.388  19.056  21.895  0.00  0.00    +0.176 C 
BRANCH   5   6
ATOM      6  C   THR A   6      20.476  19.342  20.866  0.00  0.00    +0.243 C 
ATOM      7  N   GLN A   7      21.407  18.413  20.697  0.00  0.00    -0.297 N 
ATOM      8  H   GLN A   7      21.354  17.523  21.232  0.00  0.00    +0.150 HD
ATOM      9  O   THR A   6      20.469  20.394  20.227  0.00  0.00    -0.273 OA
BRANCH   7  10
ATOM     10  CA  GLN A   7      22.503  18.635  19.766  0.00  0.00    +0.149 C 
BRANCH  10  11
ATOM     11  C   GLN A   7      22.149  18.441  18.292  0.00  0.00    +0.241 C 
ATOM     12  N   GLY A   8      20.970  17.895  18.016  0.00  0.00    -0.295 N 
ATOM     13  H   GLY A   8      20.324  17.623  18.784  0.00  0.00    +0.150 HD
ATOM     14  O   GLN A   7      22.938  18.787  17.414  0.00  0.00    -0.273 OA
BRANCH  12  15
ATOM     15  CA  GLY A   8      20.592  17.682  16.630  0.00  0.00    +0.176 C 
BRANCH  15  16
ATOM     16  C   GLY A   8      19.251  17.008  16.435  0.00  0.00    +0.243 C 
ATOM     17  O   GLY A   8      18.389  17.039  17.316  0.00  0.00    -0.273 OA
ATOM     18  N   LYS A   9      19.070  16.389  15.273  0.00  0.00    -0.297 N 
ATOM     19  H   LYS A   9      19.834  16.387  14.567  0.00  0.00    +0.150 HD
BRANCH  18  20
ATOM     20  CA  LYS A   9      17.815  15.714  14.977  0.00  0.00    +0.149 C 
BRANCH  20  21
ATOM     21  C   LYS A   9      17.852  14.975  13.648  0.00  0.00    +0.241 C 
ATOM     22  N   TRP A  10      16.903  14.060  13.485  0.00  0.00    -0.298 N 
ATOM     23  H   TRP A  10      16.232  13.885  14.260  0.00  0.00    +0.150 HD
ATOM     24  O   LYS A   9      18.718  15.216  12.800  0.00  0.00    -0.273 OA
BRANCH  22  25
ATOM     25  CA  TRP A  10      16.775  13.297  12.257  0.00  0.00    +0.141 C 
BRANCH  25  26
ATOM     26  C   TRP A  10      15.333  12.857  12.067  0.00  0.00    +0.227 C 
ATOM     27  O   TRP A  10      14.554  12.802  13.017  0.00  0.00    -0.286 OA
ENDBRANCH  25  26
BRANCH  25  28
ATOM     28  CB  TRP A  10      17.726  12.079  12.235  0.00  0.00    +0.056 C 
BRANCH  28  29
ATOM     29  CG  TRP A  10      17.654  11.114  13.407  0.00  0.00    -0.002 A 
ATOM     30  CD1 TRP A  10      18.540  11.025  14.448  0.00  0.00    +0.068 A 
ATOM     31  NE1 TRP A  10      18.191   9.991  15.284  0.00  0.00    -0.352 N 
ATOM     32  HE1 TRP A  10      18.702   9.711  16.145  0.00  0.00    +0.166 HD
ATOM     33  CE2 TRP A  10      17.059   9.388  14.798  0.00  0.00    +0.056 A 
ATOM     34  CZ2 TRP A  10      16.336   8.308  15.297  0.00  0.00    +0.017 A 
ATOM     35  CH2 TRP A  10      15.228   7.910  14.595  0.00  0.00    +0.001 A 
ATOM     36  CZ3 TRP A  10      14.835   8.562  13.419  0.00  0.00    +0.000 A 
ATOM     37  CE3 TRP A  10      15.555   9.640  12.920  0.00  0.00    +0.001 A 
ATOM     38  CD2 TRP A  10      16.690  10.068  13.616  0.00  0.00    +0.013 A 
ENDBRANCH  28  29
ENDBRANCH  25  28
ENDBRANCH  22  25
ENDBRANCH  20  21
BRANCH  20  39
ATOM     39  CB  LYS A   9      16.674  16.729  14.940  0.00  0.00    +0.029 C 
BRANCH  39  40
ATOM     40  CG  LYS A   9      16.833  17.761  13.836  0.00  0.00    +0.000 C 
BRANCH  40  41
ATOM     41  CD  LYS A   9      15.730  18.808  13.873  0.00  0.00    -0.024 C 
BRANCH  41  42
ATOM     42  CE  LYS A   9      15.929  19.840  12.775  0.00  0.00    -0.086 C 
BRANCH  42  43
ATOM     43  NZ  LYS A   9      14.894  20.912  12.817  0.00  0.00    +0.380 N 
ATOM     44  HZ1 LYS A   9      14.940  21.401  13.734  0.00  0.00    -0.089 HD
ATOM     45  HZ2 LYS A   9      13.952  20.488  12.696  0.00  0.00    -0.089 HD
ATOM     46  HZ3 LYS A   9      15.070  21.592  12.050  0.00  0.00    -0.089 HD
ENDBRANCH  42  43
ENDBRANCH  41  42
ENDBRANCH  40  41
ENDBRANCH  39  40
ENDBRANCH  20  39
ENDBRANCH  18  20
ENDBRANCH  15  16
ENDBRANCH  12  15
ENDBRANCH  10  11
BRANCH  10  47
ATOM     47  CB  GLN A   7      23.683  17.733  20.133  0.00  0.00    +0.039 C 
BRANCH  47  48
ATOM     48  CG  GLN A   7      25.023  18.257  19.643  0.00  0.00    +0.087 C 
BRANCH  48  49
ATOM     49  CD  GLN A   7      25.368  19.613  20.241  0.00  0.00    +0.219 C 
ATOM     50  OE1 GLN A   7      25.417  19.769  21.463  0.00  0.00    -0.275 OA
ATOM     51  NE2 GLN A   7      25.610  20.600  19.380  0.00  0.00    -0.329 N 
ATOM     52 HE21 GLN A   7      25.852  21.549  19.731  0.00  0.00    +0.145 HD
ATOM     53 HE22 GLN A   7      25.557  20.422  18.357  0.00  0.00    +0.145 HD
ENDBRANCH  48  49
ENDBRANCH  47  48
ENDBRANCH  10  47
ENDBRANCH   7  10
ENDBRANCH   5   6
BRANCH   5  54
ATOM     54  CB  THR A   6      20.039  19.053  23.294  0.00  0.00    +0.137 C 
ATOM     55  CG2 THR A   6      21.078  20.159  23.401  0.00  0.00    +0.034 C 
BRANCH  54  56
ATOM     56  OG1 THR A   6      19.029  19.255  24.289  0.00  0.00    -0.382 OA
ATOM     57  HG1 THR A   6      19.447  19.253  25.187  0.00  0.00    +0.210 HD
ENDBRANCH  54  56
ENDBRANCH   5  54
ENDBRANCH   2   5
BRANCH   1  58
ATOM     58  CA  TYR A   5      17.070  16.401  20.462  0.00  0.00    +0.153 C 
BRANCH  58  61
ATOM     59  C   PRO A   4      15.188  15.972  18.986  0.00  0.00    +0.241 C 
ATOM     60  O   PRO A   4      14.512  15.516  19.910  0.00  0.00    -0.273 OA
ATOM     61  N   TYR A   5      16.443  16.375  19.144  0.00  0.00    -0.297 N 
ATOM     62  H   TYR A   5      16.990  16.678  18.313  0.00  0.00    +0.150 HD
BRANCH  59  65
ATOM     63  C   VAL A   3      14.381  13.803  16.691  0.00  0.00    +0.244 C 
ATOM     64  N   PRO A   4      13.822  14.854  17.295  0.00  0.00    -0.272 N 
ATOM     65  CA  PRO A   4      14.613  16.052  17.574  0.00  0.00    +0.152 C 
ATOM     66  CB  PRO A   4      13.587  17.168  17.442  0.00  0.00    +0.031 C 
ATOM     67  CG  PRO A   4      12.359  16.530  18.026  0.00  0.00    +0.024 C 
ATOM     68  CD  PRO A   4      12.379  15.128  17.425  0.00  0.00    +0.094 C 
ATOM     69  O   VAL A   3      15.557  13.811  16.321  0.00  0.00    -0.273 OA
BRANCH  63  70
ATOM     70  CA  VAL A   3      13.485  12.602  16.455  0.00  0.00    +0.149 C 
BRANCH  70  73
ATOM     71  C   TYR A   2      11.444  12.519  15.184  0.00  0.00    +0.241 C 
ATOM     72  O   TYR A   2      10.773  12.420  16.209  0.00  0.00    -0.273 OA
ATOM     73  N   VAL A   3      12.764  12.634  15.197  0.00  0.00    -0.297 N 
ATOM     74  H   VAL A   3      13.284  12.747  14.303  0.00  0.00    +0.150 HD
BRANCH  71  75
ATOM     75  CA  TYR A   2      10.774  12.524  13.821  0.00  0.00    +0.153 C 
BRANCH  75  77
ATOM     76  C   VAL A   1      10.233  10.369  12.809  0.00  0.00    +0.238 C 
ATOM     77  N   TYR A   2       9.980  11.305  13.716  0.00  0.00    -0.297 N 
ATOM     78  H   TYR A   2       9.188  11.164  14.375  0.00  0.00    +0.150 HD
ATOM     79  O   VAL A   1      11.136  10.463  11.978  0.00  0.00    -0.274 OA
BRANCH  76  80
ATOM     80  CA  VAL A   1       9.304   9.161  12.828  0.00  0.00    +0.145 C 
BRANCH  80  81
ATOM     81  CB  VAL A   1      10.031   7.929  13.438  0.00  0.00    +0.025 C 
ATOM     82  CG2 VAL A   1      10.502   8.250  14.853  0.00  0.00    +0.002 C 
ATOM     83  CG1 VAL A   1      11.196   7.511  12.553  0.00  0.00    +0.002 C 
ENDBRANCH  80  81
BRANCH  80  84
ATOM     84  N   VAL A   1       8.857   8.904  11.467  0.00  0.00    -0.238 NA
ATOM     85  H   VAL A   1       9.505   9.091  10.675  0.00  0.00    +0.142 HD
ENDBRANCH  80  84
ENDBRANCH  76  80
ENDBRANCH  75  77
BRANCH  75  86
ATOM     86  CB  TYR A   2       9.865  13.748  13.682  0.00  0.00    +0.055 C 
BRANCH  86  87
ATOM     87  CG  TYR A   2      10.567  15.071  13.892  0.00  0.00    -0.020 A 
ATOM     88  CD2 TYR A   2      10.049  16.025  14.760  0.00  0.00    -0.001 A 
ATOM     89  CE2 TYR A   2      10.681  17.244  14.942  0.00  0.00    +0.036 A 
ATOM     90  CZ  TYR A   2      11.846  17.520  14.253  0.00  0.00    +0.134 A 
ATOM     91  CE1 TYR A   2      12.379  16.588  13.386  0.00  0.00    +0.036 A 
ATOM     92  CD1 TYR A   2      11.739  15.372  13.210  0.00  0.00    -0.001 A 
BRANCH  90  93
ATOM     93  OH  TYR A   2      12.485  18.727  14.432  0.00  0.00    -0.506 OA
ATOM     94  HH  TYR A   2      13.297  18.756  13.866  0.00  0.00    +0.292 HD
ENDBRANCH  90  93
ENDBRANCH  86  87
ENDBRANCH  75  86
ENDBRANCH  71  75
ENDBRANCH  70  73
BRANCH  70  95
ATOM     95  CB  VAL A   3      14.339  11.322  16.564  0.00  0.00    +0.027 C 
ATOM     96  CG2 VAL A   3      15.100  11.324  17.872  0.00  0.00    +0.002 C 
ATOM     97  CG1 VAL A   3      13.445  10.092  16.470  0.00  0.00    +0.002 C 
ENDBRANCH  70  95
ENDBRANCH  63  70
ENDBRANCH  59  65
ENDBRANCH  58  61
BRANCH  58  98
ATOM     98  CB  TYR A   5      17.895  15.129  20.743  0.00  0.00    +0.055 C 
BRANCH  98  99
ATOM     99  CG  TYR A   5      18.918  14.769  19.694  0.00  0.00    -0.020 A 
ATOM    100  CD2 TYR A   5      20.258  15.092  19.866  0.00  0.00    -0.001 A 
ATOM    101  CE2 TYR A   5      21.196  14.787  18.899  0.00  0.00    +0.036 A 
ATOM    102  CZ  TYR A   5      20.800  14.146  17.739  0.00  0.00    +0.134 A 
ATOM    103  CE1 TYR A   5      19.475  13.810  17.550  0.00  0.00    +0.036 A 
ATOM    104  CD1 TYR A   5      18.543  14.122  18.522  0.00  0.00    -0.001 A 
BRANCH 102 105
ATOM    105  OH  TYR A   5      21.733  13.864  16.761  0.00  0.00    -0.506 OA
ATOM    106  HH  TYR A   5      22.143  14.708  16.444  0.00  0.00    +0.292 HD
ENDBRANCH 102 105
ENDBRANCH  98  99
ENDBRANCH  58  98
ENDBRANCH   1  58
TORSDOF 39
REMARK  Name = ../refined-set-2016/4h3g/4h3g_pocket.pdb
REMARK  217 active torsions:
REMARK  status: ('A' for Active; 'I' for Inactive)
REMARK    1  A    between atoms: _1  and  _3
REMARK    2  A    between atoms: _3  and  _4
REMARK    3  A    between atoms: _3  and  _6
REMARK    4  A    between atoms: _6  and  _7
REMARK    5  A    between atoms: _7  and  _8
REMARK    6  A    between atoms: _8  and  _9
REMARK    7  A    between atoms: _9  and  _10
REMARK    8  A    between atoms: _14  and  _16
REMARK    9  A    between atoms: _16  and  _17
REMARK   10  A    between atoms: _16  and  _19
REMARK   11  A    between atoms: _19  and  _20
REMARK   12  A    between atoms: _22  and  _24
REMARK   13  A    between atoms: _24  and  _25
REMARK   14  A    between atoms: _27  and  _29
REMARK   15  A    between atoms: _29  and  _30
REMARK   16  A    between atoms: _29  and  _32
REMARK   17  A    between atoms: _32  and  _33
REMARK   18  A    between atoms: _33  and  _34
REMARK   19  A    between atoms: _39  and  _41
REMARK   20  A    between atoms: _41  and  _42
REMARK   21  A    between atoms: _44  and  _46
REMARK   22  A    between atoms: _46  and  _47
REMARK   23  A    between atoms: _46  and  _49
REMARK   24  A    between atoms: _49  and  _50
REMARK   25  A    between atoms: _55  and  _56
REMARK   26  A    between atoms: _58  and  _60
REMARK   27  A    between atoms: _60  and  _61
REMARK   28  A    between atoms: _60  and  _63
REMARK   29  A    between atoms: _63  and  _64
REMARK   30  A    between atoms: _67  and  _69
REMARK   31  A    between atoms: _69  and  _70
REMARK   32  A    between atoms: _69  and  _72
REMARK   33  A    between atoms: _75  and  _77
REMARK   34  A    between atoms: _77  and  _78
REMARK   35  A    between atoms: _77  and  _80
REMARK   36  A    between atoms: _80  and  _81
REMARK   37  A    between atoms: _84  and  _86
REMARK   38  A    between atoms: _86  and  _87
REMARK   39  A    between atoms: _86  and  _89
REMARK   40  A    between atoms: _89  and  _90
REMARK   41  A    between atoms: _93  and  _95
REMARK   42  A    between atoms: _95  and  _96
REMARK   43  A    between atoms: _98  and  _100
REMARK   44  A    between atoms: _100  and  _101
REMARK   45  A    between atoms: _100  and  _103
REMARK   46  A    between atoms: _103  and  _104
REMARK   47  A    between atoms: _106  and  _108
REMARK   48  A    between atoms: _108  and  _109
REMARK   49  A    between atoms: _108  and  _111
REMARK   50  A    between atoms: _111  and  _112
REMARK   51  A    between atoms: _114  and  _116
REMARK   52  A    between atoms: _116  and  _117
REMARK   53  A    between atoms: _116  and  _119
REMARK   54  A    between atoms: _119  and  _120
REMARK   55  A    between atoms: _125  and  _127
REMARK   56  A    between atoms: _127  and  _128
REMARK   57  A    between atoms: _127  and  _130
REMARK   58  A    between atoms: _130  and  _131
REMARK   59  A    between atoms: _137  and  _139
REMARK   60  A    between atoms: _139  and  _140
REMARK   61  A    between atoms: _143  and  _145
REMARK   62  A    between atoms: _145  and  _146
REMARK   63  A    between atoms: _145  and  _148
REMARK   64  A    between atoms: _151  and  _153
REMARK   65  A    between atoms: _153  and  _154
REMARK   66  A    between atoms: _153  and  _156
REMARK   67  A    between atoms: _156  and  _157
REMARK   68  A    between atoms: _162  and  _163
REMARK   69  A    between atoms: _165  and  _167
REMARK   70  A    between atoms: _167  and  _168
REMARK   71  A    between atoms: _167  and  _170
REMARK   72  A    between atoms: _174  and  _175
REMARK   73  A    between atoms: _180  and  _182
REMARK   74  A    between atoms: _182  and  _183
REMARK   75  A    between atoms: _182  and  _185
REMARK   76  A    between atoms: _185  and  _186
REMARK   77  A    between atoms: _191  and  _192
REMARK   78  A    between atoms: _194  and  _196
REMARK   79  A    between atoms: _196  and  _197
REMARK   80  A    between atoms: _196  and  _199
REMARK   81  A    between atoms: _199  and  _200
REMARK   82  A    between atoms: _203  and  _205
REMARK   83  A    between atoms: _205  and  _206
REMARK   84  A    between atoms: _205  and  _208
REMARK   85  A    between atoms: _208  and  _209
REMARK   86  A    between atoms: _209  and  _210
REMARK   87  A    between atoms: _215  and  _217
REMARK   88  A    between atoms: _217  and  _218
REMARK   89  A    between atoms: _220  and  _222
REMARK   90  A    between atoms: _222  and  _223
REMARK   91  A    between atoms: _222  and  _225
REMARK   92  A    between atoms: _225  and  _226
REMARK   93  A    between atoms: _226  and  _227
REMARK   94  A    between atoms: _227  and  _228
REMARK   95  A    between atoms: _228  and  _229
REMARK   96  A    between atoms: _233  and  _235
REMARK   97  A    between atoms: _235  and  _236
REMARK   98  A    between atoms: _235  and  _238
REMARK   99  A    between atoms: _238  and  _239
REMARK  100  A    between atoms: _249  and  _251
REMARK  101  A    between atoms: _251  and  _252
REMARK  102  A    between atoms: _251  and  _254
REMARK  103  A    between atoms: _254  and  _255
REMARK  104  A    between atoms: _258  and  _260
REMARK  105  A    between atoms: _260  and  _261
REMARK  106  A    between atoms: _260  and  _263
REMARK  107  A    between atoms: _263  and  _264
REMARK  108  A    between atoms: _264  and  _265
REMARK  109  A    between atoms: _265  and  _266
REMARK  110  A    between atoms: _266  and  _267
REMARK  111  A    between atoms: _271  and  _273
REMARK  112  A    between atoms: _273  and  _274
REMARK  113  A    between atoms: _273  and  _276
REMARK  114  A    between atoms: _276  and  _277
REMARK  115  A    between atoms: _283  and  _285
REMARK  116  A    between atoms: _285  and  _286
REMARK  117  A    between atoms: _285  and  _288
REMARK  118  A    between atoms: _288  and  _289
REMARK  119  A    between atoms: _295  and  _297
REMARK  120  A    between atoms: _297  and  _298
REMARK  121  A    between atoms: _297  and  _300
REMARK  122  A    between atoms: _300  and  _301
REMARK  123  A    between atoms: _304  and  _306
REMARK  124  A    between atoms: _306  and  _307
REMARK  125  A    between atoms: _306  and  _309
REMARK  126  A    between atoms: _309  and  _310
REMARK  127  A    between atoms: _312  and  _314
REMARK  128  A    between atoms: _314  and  _315
REMARK  129  A    between atoms: _314  and  _317
REMARK  130  A    between atoms: _317  and  _318
REMARK  131  A    between atoms: _328  and  _330
REMARK  132  A    between atoms: _330  and  _331
REMARK  133  A    between atoms: _333  and  _335
REMARK  134  A    between atoms: _335  and  _336
REMARK  135  A    between atoms: _335  and  _338
REMARK  136  A    between atoms: _338  and  _339
REMARK  137  A    between atoms: _342  and  _344
REMARK  138  A    between atoms: _344  and  _345
REMARK  139  A    between atoms: _344  and  _347
REMARK  140  A    between atoms: _347  and  _348
REMARK  141  A    between atoms: _351  and  _353
REMARK  142  A    between atoms: _353  and  _354
REMARK  143  A    between atoms: _356  and  _358
REMARK  144  A    between atoms: _358  and  _359
REMARK  145  A    between atoms: _358  and  _361
REMARK  146  A    between atoms: _361  and  _362
REMARK  147  A    between atoms: _365  and  _367
REMARK  148  A    between atoms: _367  and  _368
REMARK  149  A    between atoms: _367  and  _370
REMARK  150  A    between atoms: _370  and  _371
REMARK  151  A    between atoms: _374  and  _376
REMARK  152  A    between atoms: _376  and  _377
REMARK  153  A    between atoms: _380  and  _382
REMARK  154  A    between atoms: _382  and  _383
REMARK  155  A    between atoms: _382  and  _385
REMARK  156  A    between atoms: _385  and  _386
REMARK  157  A    between atoms: _386  and  _387
REMARK  158  A    between atoms: _387  and  _388
REMARK  159  A    between atoms: _397  and  _399
REMARK  160  A    between atoms: _399  and  _400
REMARK  161  A    between atoms: _399  and  _402
REMARK  162  A    between atoms: _402  and  _403
REMARK  163  A    between atoms: _406  and  _408
REMARK  164  A    between atoms: _408  and  _409
REMARK  165  A    between atoms: _408  and  _411
REMARK  166  A    between atoms: _411  and  _412
REMARK  167  A    between atoms: _417  and  _418
REMARK  168  A    between atoms: _420  and  _422
REMARK  169  A    between atoms: _422  and  _423
REMARK  170  A    between atoms: _422  and  _425
REMARK  171  A    between atoms: _425  and  _426
REMARK  172  A    between atoms: _429  and  _431
REMARK  173  A    between atoms: _431  and  _432
REMARK  174  A    between atoms: _431  and  _434
REMARK  175  A    between atoms: _437  and  _439
REMARK  176  A    between atoms: _439  and  _440
REMARK  177  A    between atoms: _439  and  _442
REMARK  178  A    between atoms: _442  and  _443
REMARK  179  A    between atoms: _446  and  _448
REMARK  180  A    between atoms: _448  and  _449
REMARK  181  A    between atoms: _448  and  _451
REMARK  182  A    between atoms: _451  and  _452
REMARK  183  A    between atoms: _454  and  _456
REMARK  184  A    between atoms: _456  and  _457
REMARK  185  A    between atoms: _459  and  _461
REMARK  186  A    between atoms: _461  and  _462
REMARK  187  A    between atoms: _461  and  _464
REMARK  188  A    between atoms: _464  and  _465
REMARK  189  A    between atoms: _468  and  _470
REMARK  190  A    between atoms: _470  and  _471
REMARK  191  A    between atoms: _470  and  _473
REMARK  192  A    between atoms: _473  and  _474
REMARK  193  A    between atoms: _477  and  _479
REMARK  194  A    between atoms: _479  and  _480
REMARK  195  A    between atoms: _479  and  _482
REMARK  196  A    between atoms: _482  and  _483
REMARK  197  A    between atoms: _488  and  _490
REMARK  198  A    between atoms: _490  and  _491
REMARK  199  A    between atoms: _490  and  _493
REMARK  200  A    between atoms: _493  and  _494
REMARK  201  A    between atoms: _494  and  _495
REMARK  202  A    between atoms: _495  and  _496
REMARK  203  A    between atoms: _505  and  _507
REMARK  204  A    between atoms: _507  and  _508
REMARK  205  A    between atoms: _507  and  _510
REMARK  206  A    between atoms: _513  and  _515
REMARK  207  A    between atoms: _515  and  _516
REMARK  208  A    between atoms: _518  and  _520
REMARK  209  A    between atoms: _520  and  _521
REMARK  210  A    between atoms: _524  and  _526
REMARK  211  A    between atoms: _526  and  _527
REMARK  212  A    between atoms: _526  and  _529
REMARK  213  A    between atoms: _532  and  _534
REMARK  214  A    between atoms: _534  and  _535
REMARK  215  A    between atoms: _534  and  _537
REMARK  216  A    between atoms: _537  and  _538
REMARK  217  A    between atoms: _538  and  _539
REMARK                            x       y       z     vdW  Elec       q    Type
REMARK                         _______ _______ _______ _____ _____    ______ ____
ROOT
ATOM      1  CA  ILE A   1      16.970   8.028   8.221  0.00  0.00    +0.133 C 
ENDROOT
BRANCH   1   2
ATOM      2  N   ILE A   1      16.747   6.586   8.223  0.00  0.00    -0.239 NA
ATOM      3  H   ILE A   1      17.519   5.956   8.520  0.00  0.00    +0.142 HD
ENDBRANCH   1   2
BRANCH   1   4
ATOM      4  CB  ILE A   1      18.224   8.385   9.054  0.00  0.00    +0.023 C 
ATOM      5  CG2 ILE A   1      18.494   9.883   8.982  0.00  0.00    +0.002 C 
BRANCH   4   6
ATOM      6  CG1 ILE A   1      18.013   7.955  10.515  0.00  0.00    +0.002 C 
ATOM      7  CD1 ILE A   1      19.271   8.086  11.385  0.00  0.00    +0.000 C 
ENDBRANCH   4   6
ENDBRANCH   1   4
BRANCH   1   8
ATOM      8  C   ILE A   1      17.100   8.611   6.816  0.00  0.00    +0.224 C 
ATOM      9  O   ILE A   1      18.016   8.264   6.064  0.00  0.00    -0.287 OA
ENDBRANCH   1   8
TORSDOF 4
REMARK  Name = ../refined-set-2016/4h3g/4h3g_pocket.pdb
REMARK  217 active torsions:
REMARK  status: ('A' for Active; 'I' for Inactive)
REMARK    1  A    between atoms: _1  and  _3
REMARK    2  A    between atoms: _3  and  _4
REMARK    3  A    between atoms: _3  and  _6
REMARK    4  A    between atoms: _6  and  _7
REMARK    5  A    between atoms: _7  and  _8
REMARK    6  A    between atoms: _8  and  _9
REMARK    7  A    between atoms: _9  and  _10
REMARK    8  A    between atoms: _14  and  _16
REMARK    9  A    between atoms: _16  and  _17
REMARK   10  A    between atoms: _16  and  _19
REMARK   11  A    between atoms: _19  and  _20
REMARK   12  A    between atoms: _22  and  _24
REMARK   13  A    between atoms: _24  and  _25
REMARK   14  A    between atoms: _27  and  _29
REMARK   15  A    between atoms: _29  and  _30
REMARK   16  A    between atoms: _29  and  _32
REMARK   17  A    between atoms: _32  and  _33
REMARK   18  A    between atoms: _33  and  _34
REMARK   19  A    between atoms: _39  and  _41
REMARK   20  A    between atoms: _41  and  _42
REMARK   21  A    between atoms: _44  and  _46
REMARK   22  A    between atoms: _46  and  _47
REMARK   23  A    between atoms: _46  and  _49
REMARK   24  A    between atoms: _49  and  _50
REMARK   25  A    between atoms: _55  and  _56
REMARK   26  A    between atoms: _58  and  _60
REMARK   27  A    between atoms: _60  and  _61
REMARK   28  A    between atoms: _60  and  _63
REMARK   29  A    between atoms: _63  and  _64
REMARK   30  A    between atoms: _67  and  _69
REMARK   31  A    between atoms: _69  and  _70
REMARK   32  A    between atoms: _69  and  _72
REMARK   33  A    between atoms: _75  and  _77
REMARK   34  A    between atoms: _77  and  _78
REMARK   35  A    between atoms: _77  and  _80
REMARK   36  A    between atoms: _80  and  _81
REMARK   37  A    between atoms: _84  and  _86
REMARK   38  A    between atoms: _86  and  _87
REMARK   39  A    between atoms: _86  and  _89
REMARK   40  A    between atoms: _89  and  _90
REMARK   41  A    between atoms: _93  and  _95
REMARK   42  A    between atoms: _95  and  _96
REMARK   43  A    between atoms: _98  and  _100
REMARK   44  A    between atoms: _100  and  _101
REMARK   45  A    between atoms: _100  and  _103
REMARK   46  A    between atoms: _103  and  _104
REMARK   47  A    between atoms: _106  and  _108
REMARK   48  A    between atoms: _108  and  _109
REMARK   49  A    between atoms: _108  and  _111
REMARK   50  A    between atoms: _111  and  _112
REMARK   51  A    between atoms: _114  and  _116
REMARK   52  A    between atoms: _116  and  _117
REMARK   53  A    between atoms: _116  and  _119
REMARK   54  A    between atoms: _119  and  _120
REMARK   55  A    between atoms: _125  and  _127
REMARK   56  A    between atoms: _127  and  _128
REMARK   57  A    between atoms: _127  and  _130
REMARK   58  A    between atoms: _130  and  _131
REMARK   59  A    between atoms: _137  and  _139
REMARK   60  A    between atoms: _139  and  _140
REMARK   61  A    between atoms: _143  and  _145
REMARK   62  A    between atoms: _145  and  _146
REMARK   63  A    between atoms: _145  and  _148
REMARK   64  A    between atoms: _151  and  _153
REMARK   65  A    between atoms: _153  and  _154
REMARK   66  A    between atoms: _153  and  _156
REMARK   67  A    between atoms: _156  and  _157
REMARK   68  A    between atoms: _162  and  _163
REMARK   69  A    between atoms: _165  and  _167
REMARK   70  A    between atoms: _167  and  _168
REMARK   71  A    between atoms: _167  and  _170
REMARK   72  A    between atoms: _174  and  _175
REMARK   73  A    between atoms: _180  and  _182
REMARK   74  A    between atoms: _182  and  _183
REMARK   75  A    between atoms: _182  and  _185
REMARK   76  A    between atoms: _185  and  _186
REMARK   77  A    between atoms: _191  and  _192
REMARK   78  A    between atoms: _194  and  _196
REMARK   79  A    between atoms: _196  and  _197
REMARK   80  A    between atoms: _196  and  _199
REMARK   81  A    between atoms: _199  and  _200
REMARK   82  A    between atoms: _203  and  _205
REMARK   83  A    between atoms: _205  and  _206
REMARK   84  A    between atoms: _205  and  _208
REMARK   85  A    between atoms: _208  and  _209
REMARK   86  A    between atoms: _209  and  _210
REMARK   87  A    between atoms: _215  and  _217
REMARK   88  A    between atoms: _217  and  _218
REMARK   89  A    between atoms: _220  and  _222
REMARK   90  A    between atoms: _222  and  _223
REMARK   91  A    between atoms: _222  and  _225
REMARK   92  A    between atoms: _225  and  _226
REMARK   93  A    between atoms: _226  and  _227
REMARK   94  A    between atoms: _227  and  _228
REMARK   95  A    between atoms: _228  and  _229
REMARK   96  A    between atoms: _233  and  _235
REMARK   97  A    between atoms: _235  and  _236
REMARK   98  A    between atoms: _235  and  _238
REMARK   99  A    between atoms: _238  and  _239
REMARK  100  A    between atoms: _249  and  _251
REMARK  101  A    between atoms: _251  and  _252
REMARK  102  A    between atoms: _251  and  _254
REMARK  103  A    between atoms: _254  and  _255
REMARK  104  A    between atoms: _258  and  _260
REMARK  105  A    between atoms: _260  and  _261
REMARK  106  A    between atoms: _260  and  _263
REMARK  107  A    between atoms: _263  and  _264
REMARK  108  A    between atoms: _264  and  _265
REMARK  109  A    between atoms: _265  and  _266
REMARK  110  A    between atoms: _266  and  _267
REMARK  111  A    between atoms: _271  and  _273
REMARK  112  A    between atoms: _273  and  _274
REMARK  113  A    between atoms: _273  and  _276
REMARK  114  A    between atoms: _276  and  _277
REMARK  115  A    between atoms: _283  and  _285
REMARK  116  A    between atoms: _285  and  _286
REMARK  117  A    between atoms: _285  and  _288
REMARK  118  A    between atoms: _288  and  _289
REMARK  119  A    between atoms: _295  and  _297
REMARK  120  A    between atoms: _297  and  _298
REMARK  121  A    between atoms: _297  and  _300
REMARK  122  A    between atoms: _300  and  _301
REMARK  123  A    between atoms: _304  and  _306
REMARK  124  A    between atoms: _306  and  _307
REMARK  125  A    between atoms: _306  and  _309
REMARK  126  A    between atoms: _309  and  _310
REMARK  127  A    between atoms: _312  and  _314
REMARK  128  A    between atoms: _314  and  _315
REMARK  129  A    between atoms: _314  and  _317
REMARK  130  A    between atoms: _317  and  _318
REMARK  131  A    between atoms: _328  and  _330
REMARK  132  A    between atoms: _330  and  _331
REMARK  133  A    between atoms: _333  and  _335
REMARK  134  A    between atoms: _335  and  _336
REMARK  135  A    between atoms: _335  and  _338
REMARK  136  A    between atoms: _338  and  _339
REMARK  137  A    between atoms: _342  and  _344
REMARK  138  A    between atoms: _344  and  _345
REMARK  139  A    between atoms: _344  and  _347
REMARK  140  A    between atoms: _347  and  _348
REMARK  141  A    between atoms: _351  and  _353
REMARK  142  A    between atoms: _353  and  _354
REMARK  143  A    between atoms: _356  and  _358
REMARK  144  A    between atoms: _358  and  _359
REMARK  145  A    between atoms: _358  and  _361
REMARK  146  A    between atoms: _361  and  _362
REMARK  147  A    between atoms: _365  and  _367
REMARK  148  A    between atoms: _367  and  _368
REMARK  149  A    between atoms: _367  and  _370
REMARK  150  A    between atoms: _370  and  _371
REMARK  151  A    between atoms: _374  and  _376
REMARK  152  A    between atoms: _376  and  _377
REMARK  153  A    between atoms: _380  and  _382
REMARK  154  A    between atoms: _382  and  _383
REMARK  155  A    between atoms: _382  and  _385
REMARK  156  A    between atoms: _385  and  _386
REMARK  157  A    between atoms: _386  and  _387
REMARK  158  A    between atoms: _387  and  _388
REMARK  159  A    between atoms: _397  and  _399
REMARK  160  A    between atoms: _399  and  _400
REMARK  161  A    between atoms: _399  and  _402
REMARK  162  A    between atoms: _402  and  _403
REMARK  163  A    between atoms: _406  and  _408
REMARK  164  A    between atoms: _408  and  _409
REMARK  165  A    between atoms: _408  and  _411
REMARK  166  A    between atoms: _411  and  _412
REMARK  167  A    between atoms: _417  and  _418
REMARK  168  A    between atoms: _420  and  _422
REMARK  169  A    between atoms: _422  and  _423
REMARK  170  A    between atoms: _422  and  _425
REMARK  171  A    between atoms: _425  and  _426
REMARK  172  A    between atoms: _429  and  _431
REMARK  173  A    between atoms: _431  and  _432
REMARK  174  A    between atoms: _431  and  _434
REMARK  175  A    between atoms: _437  and  _439
REMARK  176  A    between atoms: _439  and  _440
REMARK  177  A    between atoms: _439  and  _442
REMARK  178  A    between atoms: _442  and  _443
REMARK  179  A    between atoms: _446  and  _448
REMARK  180  A    between atoms: _448  and  _449
REMARK  181  A    between atoms: _448  and  _451
REMARK  182  A    between atoms: _451  and  _452
REMARK  183  A    between atoms: _454  and  _456
REMARK  184  A    between atoms: _456  and  _457
REMARK  185  A    between atoms: _459  and  _461
REMARK  186  A    between atoms: _461  and  _462
REMARK  187  A    between atoms: _461  and  _464
REMARK  188  A    between atoms: _464  and  _465
REMARK  189  A    between atoms: _468  and  _470
REMARK  190  A    between atoms: _470  and  _471
REMARK  191  A    between atoms: _470  and  _473
REMARK  192  A    between atoms: _473  and  _474
REMARK  193  A    between atoms: _477  and  _479
REMARK  194  A    between atoms: _479  and  _480
REMARK  195  A    between atoms: _479  and  _482
REMARK  196  A    between atoms: _482  and  _483
REMARK  197  A    between atoms: _488  and  _490
REMARK  198  A    between atoms: _490  and  _491
REMARK  199  A    between atoms: _490  and  _493
REMARK  200  A    between atoms: _493  and  _494
REMARK  201  A    between atoms: _494  and  _495
REMARK  202  A    between atoms: _495  and  _496
REMARK  203  A    between atoms: _505  and  _507
REMARK  204  A    between atoms: _507  and  _508
REMARK  205  A    between atoms: _507  and  _510
REMARK  206  A    between atoms: _513  and  _515
REMARK  207  A    between atoms: _515  and  _516
REMARK  208  A    between atoms: _518  and  _520
REMARK  209  A    between atoms: _520  and  _521
REMARK  210  A    between atoms: _524  and  _526
REMARK  211  A    between atoms: _526  and  _527
REMARK  212  A    between atoms: _526  and  _529
REMARK  213  A    between atoms: _532  and  _534
REMARK  214  A    between atoms: _534  and  _535
REMARK  215  A    between atoms: _534  and  _537
REMARK  216  A    between atoms: _537  and  _538
REMARK  217  A    between atoms: _538  and  _539
REMARK                            x       y       z     vdW  Elec       q    Type
REMARK                         _______ _______ _______ _____ _____    ______ ____
ROOT
ATOM      1  CA  PHE A   2      23.580  13.837  13.569  0.00  0.00    +0.153 C 
ENDROOT
BRANCH   1   4
ATOM      2  C   LYS A   1      24.010  16.227  13.755  0.00  0.00    +0.238 C 
ATOM      3  O   LYS A   1      24.348  16.115  14.934  0.00  0.00    -0.274 OA
ATOM      4  N   PHE A   2      23.612  15.192  13.021  0.00  0.00    -0.297 N 
ATOM      5  H   PHE A   2      23.317  15.350  12.036  0.00  0.00    +0.150 HD
BRANCH   2   6
ATOM      6  CA  LYS A   1      24.020  17.598  13.073  0.00  0.00    +0.145 C 
BRANCH   6   7
ATOM      7  N   LYS A   1      23.038  17.734  11.999  0.00  0.00    -0.238 NA
ATOM      8  H   LYS A   1      23.374  17.920  11.033  0.00  0.00    +0.142 HD
ENDBRANCH   6   7
BRANCH   6   9
ATOM      9  CB  LYS A   1      23.791  18.683  14.130  0.00  0.00    +0.026 C 
BRANCH   9  10
ATOM     10  CG  LYS A   1      23.925  20.108  13.616  0.00  0.00    -0.000 C 
BRANCH  10  11
ATOM     11  CD  LYS A   1      23.538  21.100  14.705  0.00  0.00    -0.024 C 
BRANCH  11  12
ATOM     12  CE  LYS A   1      23.680  22.540  14.237  0.00  0.00    -0.086 C 
BRANCH  12  13
ATOM     13  NZ  LYS A   1      23.260  23.494  15.303  0.00  0.00    +0.380 N 
ATOM     14  HZ1 LYS A   1      23.856  23.356  16.144  0.00  0.00    -0.089 HD
ATOM     15  HZ2 LYS A   1      22.265  23.320  15.550  0.00  0.00    -0.089 HD
ATOM     16  HZ3 LYS A   1      23.367  24.469  14.956  0.00  0.00    -0.089 HD
ENDBRANCH  12  13
ENDBRANCH  11  12
ENDBRANCH  10  11
ENDBRANCH   9  10
ENDBRANCH   6   9
ENDBRANCH   2   6
ENDBRANCH   1   4
BRANCH   1  17
ATOM     17  C   PHE A   2      24.860  13.134  13.138  0.00  0.00    +0.241 C 
ATOM     18  O   PHE A   2      25.698  12.773  13.966  0.00  0.00    -0.273 OA
ATOM     19  N   PHE A   3      25.022  12.952  11.834  0.00  0.00    -0.297 N 
ATOM     20  H   PHE A   3      24.287  13.274  11.172  0.00  0.00    +0.150 HD
BRANCH  19  21
ATOM     21  CA  PHE A   3      26.216  12.307  11.325  0.00  0.00    +0.153 C 
BRANCH  21  22
ATOM     22  C   PHE A   3      27.427  13.217  11.483  0.00  0.00    +0.241 C 
ATOM     23  N   ILE A   4      28.561  12.609  11.811  0.00  0.00    -0.298 N 
ATOM     24  H   ILE A   4      28.562  11.575  11.918  0.00  0.00    +0.150 HD
ATOM     25  O   PHE A   3      27.332  14.433  11.321  0.00  0.00    -0.273 OA
BRANCH  23  26
ATOM     26  CA  ILE A   4      29.804  13.337  12.026  0.00  0.00    +0.137 C 
BRANCH  26  27
ATOM     27  C   ILE A   4      30.859  12.930  11.003  0.00  0.00    +0.227 C 
ATOM     28  O   ILE A   4      31.096  11.743  10.780  0.00  0.00    -0.286 OA
ENDBRANCH  26  27
BRANCH  26  29
ATOM     29  CB  ILE A   4      30.350  13.050  13.436  0.00  0.00    +0.026 C 
ATOM     30  CG2 ILE A   4      31.640  13.823  13.668  0.00  0.00    +0.002 C 
BRANCH  29  31
ATOM     31  CG1 ILE A   4      29.299  13.426  14.481  0.00  0.00    +0.002 C 
ATOM     32  CD1 ILE A   4      29.648  12.964  15.890  0.00  0.00    +0.000 C 
ENDBRANCH  29  31
ENDBRANCH  26  29
ENDBRANCH  23  26
ENDBRANCH  21  22
BRANCH  21  33
ATOM     33  CB  PHE A   3      26.014  11.917   9.866  0.00  0.00    +0.055 C 
BRANCH  33  34
ATOM     34  CG  PHE A   3      24.912  10.918   9.673  0.00  0.00    -0.020 A 
ATOM     35  CD2 PHE A   3      25.014   9.649  10.225  0.00  0.00    -0.004 A 
ATOM     36  CE2 PHE A   3      23.978   8.735  10.093  0.00  0.00    -0.000 A 
ATOM     37  CZ  PHE A   3      22.832   9.089   9.407  0.00  0.00    -0.000 A 
ATOM     38  CE1 PHE A   3      22.722  10.353   8.853  0.00  0.00    -0.000 A 
ATOM     39  CD1 PHE A   3      23.759  11.258   8.987  0.00  0.00    -0.004 A 
ENDBRANCH  33  34
ENDBRANCH  21  33
ENDBRANCH  19  21
ENDBRANCH   1  17
BRANCH   1  40
ATOM     40  CB  PHE A   2      22.353  13.075  13.043  0.00  0.00    +0.055 C 
BRANCH  40  41
ATOM     41  CG  PHE A   2      22.242  11.656  13.559  0.00  0.00    -0.020 A 
ATOM     42  CD2 PHE A   2      22.111  11.406  14.918  0.00  0.00    -0.004 A 
ATOM     43  CE2 PHE A   2      21.995  10.106  15.394  0.00  0.00    -0.000 A 
ATOM     44  CZ  PHE A   2      22.011   9.040  14.509  0.00  0.00    -0.000 A 
ATOM     45  CE1 PHE A   2      22.143   9.275  13.147  0.00  0.00    -0.000 A 
ATOM     46  CD1 PHE A   2      22.257  10.579  12.681  0.00  0.00    -0.004 A 
ENDBRANCH  40  41
ENDBRANCH   1  40
TORSDOF 19
REMARK  Name = ../refined-set-2016/4h3g/4h3g_pocket.pdb
REMARK  217 active torsions:
REMARK  status: ('A' for Active; 'I' for Inactive)
REMARK    1  A    between atoms: _1  and  _3
REMARK    2  A    between atoms: _3  and  _4
REMARK    3  A    between atoms: _3  and  _6
REMARK    4  A    between atoms: _6  and  _7
REMARK    5  A    between atoms: _7  and  _8
REMARK    6  A    between atoms: _8  and  _9
REMARK    7  A    between atoms: _9  and  _10
REMARK    8  A    between atoms: _14  and  _16
REMARK    9  A    between atoms: _16  and  _17
REMARK   10  A    between atoms: _16  and  _19
REMARK   11  A    between atoms: _19  and  _20
REMARK   12  A    between atoms: _22  and  _24
REMARK   13  A    between atoms: _24  and  _25
REMARK   14  A    between atoms: _27  and  _29
REMARK   15  A    between atoms: _29  and  _30
REMARK   16  A    between atoms: _29  and  _32
REMARK   17  A    between atoms: _32  and  _33
REMARK   18  A    between atoms: _33  and  _34
REMARK   19  A    between atoms: _39  and  _41
REMARK   20  A    between atoms: _41  and  _42
REMARK   21  A    between atoms: _44  and  _46
REMARK   22  A    between atoms: _46  and  _47
REMARK   23  A    between atoms: _46  and  _49
REMARK   24  A    between atoms: _49  and  _50
REMARK   25  A    between atoms: _55  and  _56
REMARK   26  A    between atoms: _58  and  _60
REMARK   27  A    between atoms: _60  and  _61
REMARK   28  A    between atoms: _60  and  _63
REMARK   29  A    between atoms: _63  and  _64
REMARK   30  A    between atoms: _67  and  _69
REMARK   31  A    between atoms: _69  and  _70
REMARK   32  A    between atoms: _69  and  _72
REMARK   33  A    between atoms: _75  and  _77
REMARK   34  A    between atoms: _77  and  _78
REMARK   35  A    between atoms: _77  and  _80
REMARK   36  A    between atoms: _80  and  _81
REMARK   37  A    between atoms: _84  and  _86
REMARK   38  A    between atoms: _86  and  _87
REMARK   39  A    between atoms: _86  and  _89
REMARK   40  A    between atoms: _89  and  _90
REMARK   41  A    between atoms: _93  and  _95
REMARK   42  A    between atoms: _95  and  _96
REMARK   43  A    between atoms: _98  and  _100
REMARK   44  A    between atoms: _100  and  _101
REMARK   45  A    between atoms: _100  and  _103
REMARK   46  A    between atoms: _103  and  _104
REMARK   47  A    between atoms: _106  and  _108
REMARK   48  A    between atoms: _108  and  _109
REMARK   49  A    between atoms: _108  and  _111
REMARK   50  A    between atoms: _111  and  _112
REMARK   51  A    between atoms: _114  and  _116
REMARK   52  A    between atoms: _116  and  _117
REMARK   53  A    between atoms: _116  and  _119
REMARK   54  A    between atoms: _119  and  _120
REMARK   55  A    between atoms: _125  and  _127
REMARK   56  A    between atoms: _127  and  _128
REMARK   57  A    between atoms: _127  and  _130
REMARK   58  A    between atoms: _130  and  _131
REMARK   59  A    between atoms: _137  and  _139
REMARK   60  A    between atoms: _139  and  _140
REMARK   61  A    between atoms: _143  and  _145
REMARK   62  A    between atoms: _145  and  _146
REMARK   63  A    between atoms: _145  and  _148
REMARK   64  A    between atoms: _151  and  _153
REMARK   65  A    between atoms: _153  and  _154
REMARK   66  A    between atoms: _153  and  _156
REMARK   67  A    between atoms: _156  and  _157
REMARK   68  A    between atoms: _162  and  _163
REMARK   69  A    between atoms: _165  and  _167
REMARK   70  A    between atoms: _167  and  _168
REMARK   71  A    between atoms: _167  and  _170
REMARK   72  A    between atoms: _174  and  _175
REMARK   73  A    between atoms: _180  and  _182
REMARK   74  A    between atoms: _182  and  _183
REMARK   75  A    between atoms: _182  and  _185
REMARK   76  A    between atoms: _185  and  _186
REMARK   77  A    between atoms: _191  and  _192
REMARK   78  A    between atoms: _194  and  _196
REMARK   79  A    between atoms: _196  and  _197
REMARK   80  A    between atoms: _196  and  _199
REMARK   81  A    between atoms: _199  and  _200
REMARK   82  A    between atoms: _203  and  _205
REMARK   83  A    between atoms: _205  and  _206
REMARK   84  A    between atoms: _205  and  _208
REMARK   85  A    between atoms: _208  and  _209
REMARK   86  A    between atoms: _209  and  _210
REMARK   87  A    between atoms: _215  and  _217
REMARK   88  A    between atoms: _217  and  _218
REMARK   89  A    between atoms: _220  and  _222
REMARK   90  A    between atoms: _222  and  _223
REMARK   91  A    between atoms: _222  and  _225
REMARK   92  A    between atoms: _225  and  _226
REMARK   93  A    between atoms: _226  and  _227
REMARK   94  A    between atoms: _227  and  _228
REMARK   95  A    between atoms: _228  and  _229
REMARK   96  A    between atoms: _233  and  _235
REMARK   97  A    between atoms: _235  and  _236
REMARK   98  A    between atoms: _235  and  _238
REMARK   99  A    between atoms: _238  and  _239
REMARK  100  A    between atoms: _249  and  _251
REMARK  101  A    between atoms: _251  and  _252
REMARK  102  A    between atoms: _251  and  _254
REMARK  103  A    between atoms: _254  and  _255
REMARK  104  A    between atoms: _258  and  _260
REMARK  105  A    between atoms: _260  and  _261
REMARK  106  A    between atoms: _260  and  _263
REMARK  107  A    between atoms: _263  and  _264
REMARK  108  A    between atoms: _264  and  _265
REMARK  109  A    between atoms: _265  and  _266
REMARK  110  A    between atoms: _266  and  _267
REMARK  111  A    between atoms: _271  and  _273
REMARK  112  A    between atoms: _273  and  _274
REMARK  113  A    between atoms: _273  and  _276
REMARK  114  A    between atoms: _276  and  _277
REMARK  115  A    between atoms: _283  and  _285
REMARK  116  A    between atoms: _285  and  _286
REMARK  117  A    between atoms: _285  and  _288
REMARK  118  A    between atoms: _288  and  _289
REMARK  119  A    between atoms: _295  and  _297
REMARK  120  A    between atoms: _297  and  _298
REMARK  121  A    between atoms: _297  and  _300
REMARK  122  A    between atoms: _300  and  _301
REMARK  123  A    between atoms: _304  and  _306
REMARK  124  A    between atoms: _306  and  _307
REMARK  125  A    between atoms: _306  and  _309
REMARK  126  A    between atoms: _309  and  _310
REMARK  127  A    between atoms: _312  and  _314
REMARK  128  A    between atoms: _314  and  _315
REMARK  129  A    between atoms: _314  and  _317
REMARK  130  A    between atoms: _317  and  _318
REMARK  131  A    between atoms: _328  and  _330
REMARK  132  A    between atoms: _330  and  _331
REMARK  133  A    between atoms: _333  and  _335
REMARK  134  A    between atoms: _335  and  _336
REMARK  135  A    between atoms: _335  and  _338
REMARK  136  A    between atoms: _338  and  _339
REMARK  137  A    between atoms: _342  and  _344
REMARK  138  A    between atoms: _344  and  _345
REMARK  139  A    between atoms: _344  and  _347
REMARK  140  A    between atoms: _347  and  _348
REMARK  141  A    between atoms: _351  and  _353
REMARK  142  A    between atoms: _353  and  _354
REMARK  143  A    between atoms: _356  and  _358
REMARK  144  A    between atoms: _358  and  _359
REMARK  145  A    between atoms: _358  and  _361
REMARK  146  A    between atoms: _361  and  _362
REMARK  147  A    between atoms: _365  and  _367
REMARK  148  A    between atoms: _367  and  _368
REMARK  149  A    between atoms: _367  and  _370
REMARK  150  A    between atoms: _370  and  _371
REMARK  151  A    between atoms: _374  and  _376
REMARK  152  A    between atoms: _376  and  _377
REMARK  153  A    between atoms: _380  and  _382
REMARK  154  A    between atoms: _382  and  _383
REMARK  155  A    between atoms: _382  and  _385
REMARK  156  A    between atoms: _385  and  _386
REMARK  157  A    between atoms: _386  and  _387
REMARK  158  A    between atoms: _387  and  _388
REMARK  159  A    between atoms: _397  and  _399
REMARK  160  A    between atoms: _399  and  _400
REMARK  161  A    between atoms: _399  and  _402
REMARK  162  A    between atoms: _402  and  _403
REMARK  163  A    between atoms: _406  and  _408
REMARK  164  A    between atoms: _408  and  _409
REMARK  165  A    between atoms: _408  and  _411
REMARK  166  A    between atoms: _411  and  _412
REMARK  167  A    between atoms: _417  and  _418
REMARK  168  A    between atoms: _420  and  _422
REMARK  169  A    between atoms: _422  and  _423
REMARK  170  A    between atoms: _422  and  _425
REMARK  171  A    between atoms: _425  and  _426
REMARK  172  A    between atoms: _429  and  _431
REMARK  173  A    between atoms: _431  and  _432
REMARK  174  A    between atoms: _431  and  _434
REMARK  175  A    between atoms: _437  and  _439
REMARK  176  A    between atoms: _439  and  _440
REMARK  177  A    between atoms: _439  and  _442
REMARK  178  A    between atoms: _442  and  _443
REMARK  179  A    between atoms: _446  and  _448
REMARK  180  A    between atoms: _448  and  _449
REMARK  181  A    between atoms: _448  and  _451
REMARK  182  A    between atoms: _451  and  _452
REMARK  183  A    between atoms: _454  and  _456
REMARK  184  A    between atoms: _456  and  _457
REMARK  185  A    between atoms: _459  and  _461
REMARK  186  A    between atoms: _461  and  _462
REMARK  187  A    between atoms: _461  and  _464
REMARK  188  A    between atoms: _464  and  _465
REMARK  189  A    between atoms: _468  and  _470
REMARK  190  A    between atoms: _470  and  _471
REMARK  191  A    between atoms: _470  and  _473
REMARK  192  A    between atoms: _473  and  _474
REMARK  193  A    between atoms: _477  and  _479
REMARK  194  A    between atoms: _479  and  _480
REMARK  195  A    between atoms: _479  and  _482
REMARK  196  A    between atoms: _482  and  _483
REMARK  197  A    between atoms: _488  and  _490
REMARK  198  A    between atoms: _490  and  _491
REMARK  199  A    between atoms: _490  and  _493
REMARK  200  A    between atoms: _493  and  _494
REMARK  201  A    between atoms: _494  and  _495
REMARK  202  A    between atoms: _495  and  _496
REMARK  203  A    between atoms: _505  and  _507
REMARK  204  A    between atoms: _507  and  _508
REMARK  205  A    between atoms: _507  and  _510
REMARK  206  A    between atoms: _513  and  _515
REMARK  207  A    between atoms: _515  and  _516
REMARK  208  A    between atoms: _518  and  _520
REMARK  209  A    between atoms: _520  and  _521
REMARK  210  A    between atoms: _524  and  _526
REMARK  211  A    between atoms: _526  and  _527
REMARK  212  A    between atoms: _526  and  _529
REMARK  213  A    between atoms: _532  and  _534
REMARK  214  A    between atoms: _534  and  _535
REMARK  215  A    between atoms: _534  and  _537
REMARK  216  A    between atoms: _537  and  _538
REMARK  217  A    between atoms: _538  and  _539
REMARK                            x       y       z     vdW  Elec       q    Type
REMARK                         _______ _______ _______ _____ _____    ______ ____
ROOT
ATOM      1  CA  SER A   1      33.206   9.115  12.853  0.00  0.00    +0.163 C 
ENDROOT
BRANCH   1   2
ATOM      2  N   SER A   1      33.554   9.939  11.694  0.00  0.00    -0.237 NA
ATOM      3  H   SER A   1      32.810  10.487  11.216  0.00  0.00    +0.142 HD
ENDBRANCH   1   2
BRANCH   1   4
ATOM      4  CB  SER A   1      33.285   7.629  12.522  0.00  0.00    +0.227 C 
ATOM      5  OG  SER A   1      33.585   6.792  13.381  0.00  0.00    -0.287 OA
ENDBRANCH   1   4
BRANCH   1   6
ATOM      6  C   SER A   1      31.784   9.424  13.312  0.00  0.00    +0.162 C 
BRANCH   6   7
ATOM      7  O   SER A   1      30.853   8.755  12.475  0.00  0.00    -0.380 OA
ATOM      8  H   SER A   1      29.933   8.959  12.778  0.00  0.00    +0.211 HD
ENDBRANCH   6   7
ENDBRANCH   1   6
TORSDOF 4
REMARK  Name = ../refined-set-2016/4h3g/4h3g_pocket.pdb
REMARK  217 active torsions:
REMARK  status: ('A' for Active; 'I' for Inactive)
REMARK    1  A    between atoms: _1  and  _3
REMARK    2  A    between atoms: _3  and  _4
REMARK    3  A    between atoms: _3  and  _6
REMARK    4  A    between atoms: _6  and  _7
REMARK    5  A    between atoms: _7  and  _8
REMARK    6  A    between atoms: _8  and  _9
REMARK    7  A    between atoms: _9  and  _10
REMARK    8  A    between atoms: _14  and  _16
REMARK    9  A    between atoms: _16  and  _17
REMARK   10  A    between atoms: _16  and  _19
REMARK   11  A    between atoms: _19  and  _20
REMARK   12  A    between atoms: _22  and  _24
REMARK   13  A    between atoms: _24  and  _25
REMARK   14  A    between atoms: _27  and  _29
REMARK   15  A    between atoms: _29  and  _30
REMARK   16  A    between atoms: _29  and  _32
REMARK   17  A    between atoms: _32  and  _33
REMARK   18  A    between atoms: _33  and  _34
REMARK   19  A    between atoms: _39  and  _41
REMARK   20  A    between atoms: _41  and  _42
REMARK   21  A    between atoms: _44  and  _46
REMARK   22  A    between atoms: _46  and  _47
REMARK   23  A    between atoms: _46  and  _49
REMARK   24  A    between atoms: _49  and  _50
REMARK   25  A    between atoms: _55  and  _56
REMARK   26  A    between atoms: _58  and  _60
REMARK   27  A    between atoms: _60  and  _61
REMARK   28  A    between atoms: _60  and  _63
REMARK   29  A    between atoms: _63  and  _64
REMARK   30  A    between atoms: _67  and  _69
REMARK   31  A    between atoms: _69  and  _70
REMARK   32  A    between atoms: _69  and  _72
REMARK   33  A    between atoms: _75  and  _77
REMARK   34  A    between atoms: _77  and  _78
REMARK   35  A    between atoms: _77  and  _80
REMARK   36  A    between atoms: _80  and  _81
REMARK   37  A    between atoms: _84  and  _86
REMARK   38  A    between atoms: _86  and  _87
REMARK   39  A    between atoms: _86  and  _89
REMARK   40  A    between atoms: _89  and  _90
REMARK   41  A    between atoms: _93  and  _95
REMARK   42  A    between atoms: _95  and  _96
REMARK   43  A    between atoms: _98  and  _100
REMARK   44  A    between atoms: _100  and  _101
REMARK   45  A    between atoms: _100  and  _103
REMARK   46  A    between atoms: _103  and  _104
REMARK   47  A    between atoms: _106  and  _108
REMARK   48  A    between atoms: _108  and  _109
REMARK   49  A    between atoms: _108  and  _111
REMARK   50  A    between atoms: _111  and  _112
REMARK   51  A    between atoms: _114  and  _116
REMARK   52  A    between atoms: _116  and  _117
REMARK   53  A    between atoms: _116  and  _119
REMARK   54  A    between atoms: _119  and  _120
REMARK   55  A    between atoms: _125  and  _127
REMARK   56  A    between atoms: _127  and  _128
REMARK   57  A    between atoms: _127  and  _130
REMARK   58  A    between atoms: _130  and  _131
REMARK   59  A    between atoms: _137  and  _139
REMARK   60  A    between atoms: _139  and  _140
REMARK   61  A    between atoms: _143  and  _145
REMARK   62  A    between atoms: _145  and  _146
REMARK   63  A    between atoms: _145  and  _148
REMARK   64  A    between atoms: _151  and  _153
REMARK   65  A    between atoms: _153  and  _154
REMARK   66  A    between atoms: _153  and  _156
REMARK   67  A    between atoms: _156  and  _157
REMARK   68  A    between atoms: _162  and  _163
REMARK   69  A    between atoms: _165  and  _167
REMARK   70  A    between atoms: _167  and  _168
REMARK   71  A    between atoms: _167  and  _170
REMARK   72  A    between atoms: _174  and  _175
REMARK   73  A    between atoms: _180  and  _182
REMARK   74  A    between atoms: _182  and  _183
REMARK   75  A    between atoms: _182  and  _185
REMARK   76  A    between atoms: _185  and  _186
REMARK   77  A    between atoms: _191  and  _192
REMARK   78  A    between atoms: _194  and  _196
REMARK   79  A    between atoms: _196  and  _197
REMARK   80  A    between atoms: _196  and  _199
REMARK   81  A    between atoms: _199  and  _200
REMARK   82  A    between atoms: _203  and  _205
REMARK   83  A    between atoms: _205  and  _206
REMARK   84  A    between atoms: _205  and  _208
REMARK   85  A    between atoms: _208  and  _209
REMARK   86  A    between atoms: _209  and  _210
REMARK   87  A    between atoms: _215  and  _217
REMARK   88  A    between atoms: _217  and  _218
REMARK   89  A    between atoms: _220  and  _222
REMARK   90  A    between atoms: _222  and  _223
REMARK   91  A    between atoms: _222  and  _225
REMARK   92  A    between atoms: _225  and  _226
REMARK   93  A    between atoms: _226  and  _227
REMARK   94  A    between atoms: _227  and  _228
REMARK   95  A    between atoms: _228  and  _229
REMARK   96  A    between atoms: _233  and  _235
REMARK   97  A    between atoms: _235  and  _236
REMARK   98  A    between atoms: _235  and  _238
REMARK   99  A    between atoms: _238  and  _239
REMARK  100  A    between atoms: _249  and  _251
REMARK  101  A    between atoms: _251  and  _252
REMARK  102  A    between atoms: _251  and  _254
REMARK  103  A    between atoms: _254  and  _255
REMARK  104  A    between atoms: _258  and  _260
REMARK  105  A    between atoms: _260  and  _261
REMARK  106  A    between atoms: _260  and  _263
REMARK  107  A    between atoms: _263  and  _264
REMARK  108  A    between atoms: _264  and  _265
REMARK  109  A    between atoms: _265  and  _266
REMARK  110  A    between atoms: _266  and  _267
REMARK  111  A    between atoms: _271  and  _273
REMARK  112  A    between atoms: _273  and  _274
REMARK  113  A    between atoms: _273  and  _276
REMARK  114  A    between atoms: _276  and  _277
REMARK  115  A    between atoms: _283  and  _285
REMARK  116  A    between atoms: _285  and  _286
REMARK  117  A    between atoms: _285  and  _288
REMARK  118  A    between atoms: _288  and  _289
REMARK  119  A    between atoms: _295  and  _297
REMARK  120  A    between atoms: _297  and  _298
REMARK  121  A    between atoms: _297  and  _300
REMARK  122  A    between atoms: _300  and  _301
REMARK  123  A    between atoms: _304  and  _306
REMARK  124  A    between atoms: _306  and  _307
REMARK  125  A    between atoms: _306  and  _309
REMARK  126  A    between atoms: _309  and  _310
REMARK  127  A    between atoms: _312  and  _314
REMARK  128  A    between atoms: _314  and  _315
REMARK  129  A    between atoms: _314  and  _317
REMARK  130  A    between atoms: _317  and  _318
REMARK  131  A    between atoms: _328  and  _330
REMARK  132  A    between atoms: _330  and  _331
REMARK  133  A    between atoms: _333  and  _335
REMARK  134  A    between atoms: _335  and  _336
REMARK  135  A    between atoms: _335  and  _338
REMARK  136  A    between atoms: _338  and  _339
REMARK  137  A    between atoms: _342  and  _344
REMARK  138  A    between atoms: _344  and  _345
REMARK  139  A    between atoms: _344  and  _347
REMARK  140  A    between atoms: _347  and  _348
REMARK  141  A    between atoms: _351  and  _353
REMARK  142  A    between atoms: _353  and  _354
REMARK  143  A    between atoms: _356  and  _358
REMARK  144  A    between atoms: _358  and  _359
REMARK  145  A    between atoms: _358  and  _361
REMARK  146  A    between atoms: _361  and  _362
REMARK  147  A    between atoms: _365  and  _367
REMARK  148  A    between atoms: _367  and  _368
REMARK  149  A    between atoms: _367  and  _370
REMARK  150  A    between atoms: _370  and  _371
REMARK  151  A    between atoms: _374  and  _376
REMARK  152  A    between atoms: _376  and  _377
REMARK  153  A    between atoms: _380  and  _382
REMARK  154  A    between atoms: _382  and  _383
REMARK  155  A    between atoms: _382  and  _385
REMARK  156  A    between atoms: _385  and  _386
REMARK  157  A    between atoms: _386  and  _387
REMARK  158  A    between atoms: _387  and  _388
REMARK  159  A    between atoms: _397  and  _399
REMARK  160  A    between atoms: _399  and  _400
REMARK  161  A    between atoms: _399  and  _402
REMARK  162  A    between atoms: _402  and  _403
REMARK  163  A    between atoms: _406  and  _408
REMARK  164  A    between atoms: _408  and  _409
REMARK  165  A    between atoms: _408  and  _411
REMARK  166  A    between atoms: _411  and  _412
REMARK  167  A    between atoms: _417  and  _418
REMARK  168  A    between atoms: _420  and  _422
REMARK  169  A    between atoms: _422  and  _423
REMARK  170  A    between atoms: _422  and  _425
REMARK  171  A    between atoms: _425  and  _426
REMARK  172  A    between atoms: _429  and  _431
REMARK  173  A    between atoms: _431  and  _432
REMARK  174  A    between atoms: _431  and  _434
REMARK  175  A    between atoms: _437  and  _439
REMARK  176  A    between atoms: _439  and  _440
REMARK  177  A    between atoms: _439  and  _442
REMARK  178  A    between atoms: _442  and  _443
REMARK  179  A    between atoms: _446  and  _448
REMARK  180  A    between atoms: _448  and  _449
REMARK  181  A    between atoms: _448  and  _451
REMARK  182  A    between atoms: _451  and  _452
REMARK  183  A    between atoms: _454  and  _456
REMARK  184  A    between atoms: _456  and  _457
REMARK  185  A    between atoms: _459  and  _461
REMARK  186  A    between atoms: _461  and  _462
REMARK  187  A    between atoms: _461  and  _464
REMARK  188  A    between atoms: _464  and  _465
REMARK  189  A    between atoms: _468  and  _470
REMARK  190  A    between atoms: _470  and  _471
REMARK  191  A    between atoms: _470  and  _473
REMARK  192  A    between atoms: _473  and  _474
REMARK  193  A    between atoms: _477  and  _479
REMARK  194  A    between atoms: _479  and  _480
REMARK  195  A    between atoms: _479  and  _482
REMARK  196  A    between atoms: _482  and  _483
REMARK  197  A    between atoms: _488  and  _490
REMARK  198  A    between atoms: _490  and  _491
REMARK  199  A    between atoms: _490  and  _493
REMARK  200  A    between atoms: _493  and  _494
REMARK  201  A    between atoms: _494  and  _495
REMARK  202  A    between atoms: _495  and  _496
REMARK  203  A    between atoms: _505  and  _507
REMARK  204  A    between atoms: _507  and  _508
REMARK  205  A    between atoms: _507  and  _510
REMARK  206  A    between atoms: _513  and  _515
REMARK  207  A    between atoms: _515  and  _516
REMARK  208  A    between atoms: _518  and  _520
REMARK  209  A    between atoms: _520  and  _521
REMARK  210  A    between atoms: _524  and  _526
REMARK  211  A    between atoms: _526  and  _527
REMARK  212  A    between atoms: _526  and  _529
REMARK  213  A    between atoms: _532  and  _534
REMARK  214  A    between atoms: _534  and  _535
REMARK  215  A    between atoms: _534  and  _537
REMARK  216  A    between atoms: _537  and  _538
REMARK  217  A    between atoms: _538  and  _539
REMARK                            x       y       z     vdW  Elec       q    Type
REMARK                         _______ _______ _______ _____ _____    ______ ____
ROOT
ATOM      1  CG  TRP A   1      29.091   6.342  14.207  0.00  0.00    -0.002 A 
ATOM      2  CD1 TRP A   1      30.078   6.831  15.016  0.00  0.00    +0.068 A 
ATOM      3  NE1 TRP A   1      29.695   8.033  15.557  0.00  0.00    -0.352 N 
ATOM      4  HE1 TRP A   1      30.263   8.611  16.208  0.00  0.00    +0.166 HD
ATOM      5  CE2 TRP A   1      28.442   8.347  15.099  0.00  0.00    +0.056 A 
ATOM      6  CZ2 TRP A   1      27.641   9.455  15.365  0.00  0.00    +0.017 A 
ATOM      7  CH2 TRP A   1      26.413   9.507  14.765  0.00  0.00    +0.001 A 
ATOM      8  CZ3 TRP A   1      25.972   8.486  13.911  0.00  0.00    +0.000 A 
ATOM      9  CE3 TRP A   1      26.770   7.383  13.642  0.00  0.00    +0.001 A 
ATOM     10  CD2 TRP A   1      28.029   7.303  14.244  0.00  0.00    +0.013 A 
ENDROOT
BRANCH   1  11
ATOM     11  CB  TRP A   1      29.099   5.033  13.480  0.00  0.00    +0.053 C 
BRANCH  11  12
ATOM     12  CA  TRP A   1      29.488   5.049  11.990  0.00  0.00    +0.137 C 
BRANCH  12  13
ATOM     13  N   TRP A   1      30.728   5.782  11.715  0.00  0.00    -0.239 NA
ATOM     14  H   TRP A   1      30.835   6.770  12.022  0.00  0.00    +0.142 HD
ENDBRANCH  12  13
BRANCH  12  15
ATOM     15  C   TRP A   1      28.359   5.612  11.141  0.00  0.00    +0.224 C 
ATOM     16  O   TRP A   1      28.342   6.801  10.802  0.00  0.00    -0.287 OA
ENDBRANCH  12  15
ENDBRANCH  11  12
ENDBRANCH   1  11
TORSDOF 4
REMARK  Name = ../refined-set-2016/4h3g/4h3g_pocket.pdb
REMARK  217 active torsions:
REMARK  status: ('A' for Active; 'I' for Inactive)
REMARK    1  A    between atoms: _1  and  _3
REMARK    2  A    between atoms: _3  and  _4
REMARK    3  A    between atoms: _3  and  _6
REMARK    4  A    between atoms: _6  and  _7
REMARK    5  A    between atoms: _7  and  _8
REMARK    6  A    between atoms: _8  and  _9
REMARK    7  A    between atoms: _9  and  _10
REMARK    8  A    between atoms: _14  and  _16
REMARK    9  A    between atoms: _16  and  _17
REMARK   10  A    between atoms: _16  and  _19
REMARK   11  A    between atoms: _19  and  _20
REMARK   12  A    between atoms: _22  and  _24
REMARK   13  A    between atoms: _24  and  _25
REMARK   14  A    between atoms: _27  and  _29
REMARK   15  A    between atoms: _29  and  _30
REMARK   16  A    between atoms: _29  and  _32
REMARK   17  A    between atoms: _32  and  _33
REMARK   18  A    between atoms: _33  and  _34
REMARK   19  A    between atoms: _39  and  _41
REMARK   20  A    between atoms: _41  and  _42
REMARK   21  A    between atoms: _44  and  _46
REMARK   22  A    between atoms: _46  and  _47
REMARK   23  A    between atoms: _46  and  _49
REMARK   24  A    between atoms: _49  and  _50
REMARK   25  A    between atoms: _55  and  _56
REMARK   26  A    between atoms: _58  and  _60
REMARK   27  A    between atoms: _60  and  _61
REMARK   28  A    between atoms: _60  and  _63
REMARK   29  A    between atoms: _63  and  _64
REMARK   30  A    between atoms: _67  and  _69
REMARK   31  A    between atoms: _69  and  _70
REMARK   32  A    between atoms: _69  and  _72
REMARK   33  A    between atoms: _75  and  _77
REMARK   34  A    between atoms: _77  and  _78
REMARK   35  A    between atoms: _77  and  _80
REMARK   36  A    between atoms: _80  and  _81
REMARK   37  A    between atoms: _84  and  _86
REMARK   38  A    between atoms: _86  and  _87
REMARK   39  A    between atoms: _86  and  _89
REMARK   40  A    between atoms: _89  and  _90
REMARK   41  A    between atoms: _93  and  _95
REMARK   42  A    between atoms: _95  and  _96
REMARK   43  A    between atoms: _98  and  _100
REMARK   44  A    between atoms: _100  and  _101
REMARK   45  A    between atoms: _100  and  _103
REMARK   46  A    between atoms: _103  and  _104
REMARK   47  A    between atoms: _106  and  _108
REMARK   48  A    between atoms: _108  and  _109
REMARK   49  A    between atoms: _108  and  _111
REMARK   50  A    between atoms: _111  and  _112
REMARK   51  A    between atoms: _114  and  _116
REMARK   52  A    between atoms: _116  and  _117
REMARK   53  A    between atoms: _116  and  _119
REMARK   54  A    between atoms: _119  and  _120
REMARK   55  A    between atoms: _125  and  _127
REMARK   56  A    between atoms: _127  and  _128
REMARK   57  A    between atoms: _127  and  _130
REMARK   58  A    between atoms: _130  and  _131
REMARK   59  A    between atoms: _137  and  _139
REMARK   60  A    between atoms: _139  and  _140
REMARK   61  A    between atoms: _143  and  _145
REMARK   62  A    between atoms: _145  and  _146
REMARK   63  A    between atoms: _145  and  _148
REMARK   64  A    between atoms: _151  and  _153
REMARK   65  A    between atoms: _153  and  _154
REMARK   66  A    between atoms: _153  and  _156
REMARK   67  A    between atoms: _156  and  _157
REMARK   68  A    between atoms: _162  and  _163
REMARK   69  A    between atoms: _165  and  _167
REMARK   70  A    between atoms: _167  and  _168
REMARK   71  A    between atoms: _167  and  _170
REMARK   72  A    between atoms: _174  and  _175
REMARK   73  A    between atoms: _180  and  _182
REMARK   74  A    between atoms: _182  and  _183
REMARK   75  A    between atoms: _182  and  _185
REMARK   76  A    between atoms: _185  and  _186
REMARK   77  A    between atoms: _191  and  _192
REMARK   78  A    between atoms: _194  and  _196
REMARK   79  A    between atoms: _196  and  _197
REMARK   80  A    between atoms: _196  and  _199
REMARK   81  A    between atoms: _199  and  _200
REMARK   82  A    between atoms: _203  and  _205
REMARK   83  A    between atoms: _205  and  _206
REMARK   84  A    between atoms: _205  and  _208
REMARK   85  A    between atoms: _208  and  _209
REMARK   86  A    between atoms: _209  and  _210
REMARK   87  A    between atoms: _215  and  _217
REMARK   88  A    between atoms: _217  and  _218
REMARK   89  A    between atoms: _220  and  _222
REMARK   90  A    between atoms: _222  and  _223
REMARK   91  A    between atoms: _222  and  _225
REMARK   92  A    between atoms: _225  and  _226
REMARK   93  A    between atoms: _226  and  _227
REMARK   94  A    between atoms: _227  and  _228
REMARK   95  A    between atoms: _228  and  _229
REMARK   96  A    between atoms: _233  and  _235
REMARK   97  A    between atoms: _235  and  _236
REMARK   98  A    between atoms: _235  and  _238
REMARK   99  A    between atoms: _238  and  _239
REMARK  100  A    between atoms: _249  and  _251
REMARK  101  A    between atoms: _251  and  _252
REMARK  102  A    between atoms: _251  and  _254
REMARK  103  A    between atoms: _254  and  _255
REMARK  104  A    between atoms: _258  and  _260
REMARK  105  A    between atoms: _260  and  _261
REMARK  106  A    between atoms: _260  and  _263
REMARK  107  A    between atoms: _263  and  _264
REMARK  108  A    between atoms: _264  and  _265
REMARK  109  A    between atoms: _265  and  _266
REMARK  110  A    between atoms: _266  and  _267
REMARK  111  A    between atoms: _271  and  _273
REMARK  112  A    between atoms: _273  and  _274
REMARK  113  A    between atoms: _273  and  _276
REMARK  114  A    between atoms: _276  and  _277
REMARK  115  A    between atoms: _283  and  _285
REMARK  116  A    between atoms: _285  and  _286
REMARK  117  A    between atoms: _285  and  _288
REMARK  118  A    between atoms: _288  and  _289
REMARK  119  A    between atoms: _295  and  _297
REMARK  120  A    between atoms: _297  and  _298
REMARK  121  A    between atoms: _297  and  _300
REMARK  122  A    between atoms: _300  and  _301
REMARK  123  A    between atoms: _304  and  _306
REMARK  124  A    between atoms: _306  and  _307
REMARK  125  A    between atoms: _306  and  _309
REMARK  126  A    between atoms: _309  and  _310
REMARK  127  A    between atoms: _312  and  _314
REMARK  128  A    between atoms: _314  and  _315
REMARK  129  A    between atoms: _314  and  _317
REMARK  130  A    between atoms: _317  and  _318
REMARK  131  A    between atoms: _328  and  _330
REMARK  132  A    between atoms: _330  and  _331
REMARK  133  A    between atoms: _333  and  _335
REMARK  134  A    between atoms: _335  and  _336
REMARK  135  A    between atoms: _335  and  _338
REMARK  136  A    between atoms: _338  and  _339
REMARK  137  A    between atoms: _342  and  _344
REMARK  138  A    between atoms: _344  and  _345
REMARK  139  A    between atoms: _344  and  _347
REMARK  140  A    between atoms: _347  and  _348
REMARK  141  A    between atoms: _351  and  _353
REMARK  142  A    between atoms: _353  and  _354
REMARK  143  A    between atoms: _356  and  _358
REMARK  144  A    between atoms: _358  and  _359
REMARK  145  A    between atoms: _358  and  _361
REMARK  146  A    between atoms: _361  and  _362
REMARK  147  A    between atoms: _365  and  _367
REMARK  148  A    between atoms: _367  and  _368
REMARK  149  A    between atoms: _367  and  _370
REMARK  150  A    between atoms: _370  and  _371
REMARK  151  A    between atoms: _374  and  _376
REMARK  152  A    between atoms: _376  and  _377
REMARK  153  A    between atoms: _380  and  _382
REMARK  154  A    between atoms: _382  and  _383
REMARK  155  A    between atoms: _382  and  _385
REMARK  156  A    between atoms: _385  and  _386
REMARK  157  A    between atoms: _386  and  _387
REMARK  158  A    between atoms: _387  and  _388
REMARK  159  A    between atoms: _397  and  _399
REMARK  160  A    between atoms: _399  and  _400
REMARK  161  A    between atoms: _399  and  _402
REMARK  162  A    between atoms: _402  and  _403
REMARK  163  A    between atoms: _406  and  _408
REMARK  164  A    between atoms: _408  and  _409
REMARK  165  A    between atoms: _408  and  _411
REMARK  166  A    between atoms: _411  and  _412
REMARK  167  A    between atoms: _417  and  _418
REMARK  168  A    between atoms: _420  and  _422
REMARK  169  A    between atoms: _422  and  _423
REMARK  170  A    between atoms: _422  and  _425
REMARK  171  A    between atoms: _425  and  _426
REMARK  172  A    between atoms: _429  and  _431
REMARK  173  A    between atoms: _431  and  _432
REMARK  174  A    between atoms: _431  and  _434
REMARK  175  A    between atoms: _437  and  _439
REMARK  176  A    between atoms: _439  and  _440
REMARK  177  A    between atoms: _439  and  _442
REMARK  178  A    between atoms: _442  and  _443
REMARK  179  A    between atoms: _446  and  _448
REMARK  180  A    between atoms: _448  and  _449
REMARK  181  A    between atoms: _448  and  _451
REMARK  182  A    between atoms: _451  and  _452
REMARK  183  A    between atoms: _454  and  _456
REMARK  184  A    between atoms: _456  and  _457
REMARK  185  A    between atoms: _459  and  _461
REMARK  186  A    between atoms: _461  and  _462
REMARK  187  A    between atoms: _461  and  _464
REMARK  188  A    between atoms: _464  and  _465
REMARK  189  A    between atoms: _468  and  _470
REMARK  190  A    between atoms: _470  and  _471
REMARK  191  A    between atoms: _470  and  _473
REMARK  192  A    between atoms: _473  and  _474
REMARK  193  A    between atoms: _477  and  _479
REMARK  194  A    between atoms: _479  and  _480
REMARK  195  A    between atoms: _479  and  _482
REMARK  196  A    between atoms: _482  and  _483
REMARK  197  A    between atoms: _488  and  _490
REMARK  198  A    between atoms: _490  and  _491
REMARK  199  A    between atoms: _490  and  _493
REMARK  200  A    between atoms: _493  and  _494
REMARK  201  A    between atoms: _494  and  _495
REMARK  202  A    between atoms: _495  and  _496
REMARK  203  A    between atoms: _505  and  _507
REMARK  204  A    between atoms: _507  and  _508
REMARK  205  A    between atoms: _507  and  _510
REMARK  206  A    between atoms: _513  and  _515
REMARK  207  A    between atoms: _515  and  _516
REMARK  208  A    between atoms: _518  and  _520
REMARK  209  A    between atoms: _520  and  _521
REMARK  210  A    between atoms: _524  and  _526
REMARK  211  A    between atoms: _526  and  _527
REMARK  212  A    between atoms: _526  and  _529
REMARK  213  A    between atoms: _532  and  _534
REMARK  214  A    between atoms: _534  and  _535
REMARK  215  A    between atoms: _534  and  _537
REMARK  216  A    between atoms: _537  and  _538
REMARK  217  A    between atoms: _538  and  _539
REMARK                            x       y       z     vdW  Elec       q    Type
REMARK                         _______ _______ _______ _____ _____    ______ ____
ROOT
ATOM      1  CA  LEU A   3      21.672   1.439  18.402  0.00  0.00    +0.149 C 
ENDROOT
BRANCH   1   3
ATOM      2  C   ILE A   2      21.891   3.178  16.720  0.00  0.00    +0.241 C 
ATOM      3  N   LEU A   3      22.391   2.536  17.770  0.00  0.00    -0.297 N 
ATOM      4  H   LEU A   3      23.316   2.823  18.149  0.00  0.00    +0.150 HD
ATOM      5  O   ILE A   2      20.822   2.869  16.200  0.00  0.00    -0.273 OA
BRANCH   2   6
ATOM      6  CA  ILE A   2      22.729   4.320  16.160  0.00  0.00    +0.148 C 
BRANCH   6   8
ATOM      7  C   GLY A   1      23.786   4.458  13.982  0.00  0.00    +0.240 C 
ATOM      8  N   ILE A   2      22.685   4.338  14.708  0.00  0.00    -0.297 N 
ATOM      9  H   ILE A   2      21.767   4.255  14.227  0.00  0.00    +0.150 HD
ATOM     10  O   GLY A   1      24.916   4.513  14.472  0.00  0.00    -0.274 OA
BRANCH   7  11
ATOM     11  CA  GLY A   1      23.592   4.508  12.484  0.00  0.00    +0.169 C 
BRANCH  11  12
ATOM     12  N   GLY A   1      24.874   4.645  11.827  0.00  0.00    -0.236 NA
ATOM     13  H   GLY A   1      25.753   4.478  12.358  0.00  0.00    +0.142 HD
ENDBRANCH  11  12
ENDBRANCH   7  11
ENDBRANCH   6   8
BRANCH   6  14
ATOM     14  CB  ILE A   2      22.213   5.681  16.695  0.00  0.00    +0.027 C 
ATOM     15  CG2 ILE A   2      20.738   5.851  16.321  0.00  0.00    +0.002 C 
BRANCH  14  16
ATOM     16  CG1 ILE A   2      22.402   5.775  18.203  0.00  0.00    +0.002 C 
ATOM     17  CD1 ILE A   2      22.235   7.208  18.734  0.00  0.00    +0.000 C 
ENDBRANCH  14  16
ENDBRANCH   6  14
ENDBRANCH   2   6
ENDBRANCH   1   3
BRANCH   1  18
ATOM     18  C   LEU A   3      21.268   1.865  19.815  0.00  0.00    +0.241 C 
ATOM     19  O   LEU A   3      22.104   1.891  20.725  0.00  0.00    -0.273 OA
ATOM     20  N   GLY A   4      19.995   2.227  19.985  0.00  0.00    -0.295 N 
ATOM     21  H   GLY A   4      19.349   2.227  19.170  0.00  0.00    +0.150 HD
BRANCH  20  22
ATOM     22  CA  GLY A   4      19.496   2.623  21.296  0.00  0.00    +0.176 C 
BRANCH  22  23
ATOM     23  C   GLY A   4      19.235   1.371  22.117  0.00  0.00    +0.243 C 
ATOM     24  N   LEU A   5      19.954   1.229  23.226  0.00  0.00    -0.298 N 
ATOM     25  H   LEU A   5      20.616   1.985  23.495  0.00  0.00    +0.150 HD
ATOM     26  O   GLY A   4      18.385   0.555  21.761  0.00  0.00    -0.273 OA
BRANCH  24  27
ATOM     27  CA  LEU A   5      19.848   0.048  24.081  0.00  0.00    +0.137 C 
BRANCH  27  28
ATOM     28  C   LEU A   5      18.997   0.229  25.336  0.00  0.00    +0.227 C 
ATOM     29  O   LEU A   5      18.878  -0.690  26.150  0.00  0.00    -0.286 OA
ENDBRANCH  27  28
BRANCH  27  30
ATOM     30  CB  LEU A   5      21.262  -0.409  24.470  0.00  0.00    +0.028 C 
BRANCH  30  31
ATOM     31  CG  LEU A   5      22.053  -0.976  23.290  0.00  0.00    +0.002 C 
ATOM     32  CD2 LEU A   5      23.526  -1.159  23.666  0.00  0.00    +0.000 C 
ATOM     33  CD1 LEU A   5      21.422  -2.321  22.877  0.00  0.00    +0.000 C 
ENDBRANCH  30  31
ENDBRANCH  27  30
ENDBRANCH  24  27
ENDBRANCH  22  23
ENDBRANCH  20  22
ENDBRANCH   1  18
BRANCH   1  34
ATOM     34  CB  LEU A   3      22.557   0.179  18.464  0.00  0.00    +0.029 C 
BRANCH  34  35
ATOM     35  CG  LEU A   3      21.944  -1.032  19.178  0.00  0.00    +0.002 C 
ATOM     36  CD2 LEU A   3      22.951  -2.179  19.277  0.00  0.00    +0.000 C 
ATOM     37  CD1 LEU A   3      20.700  -1.469  18.421  0.00  0.00    +0.000 C 
ENDBRANCH  34  35
ENDBRANCH   1  34
TORSDOF 16
REMARK  Name = ../refined-set-2016/4h3g/4h3g_pocket.pdb
REMARK  217 active torsions:
REMARK  status: ('A' for Active; 'I' for Inactive)
REMARK    1  A    between atoms: _1  and  _3
REMARK    2  A    between atoms: _3  and  _4
REMARK    3  A    between atoms: _3  and  _6
REMARK    4  A    between atoms: _6  and  _7
REMARK    5  A    between atoms: _7  and  _8
REMARK    6  A    between atoms: _8  and  _9
REMARK    7  A    between atoms: _9  and  _10
REMARK    8  A    between atoms: _14  and  _16
REMARK    9  A    between atoms: _16  and  _17
REMARK   10  A    between atoms: _16  and  _19
REMARK   11  A    between atoms: _19  and  _20
REMARK   12  A    between atoms: _22  and  _24
REMARK   13  A    between atoms: _24  and  _25
REMARK   14  A    between atoms: _27  and  _29
REMARK   15  A    between atoms: _29  and  _30
REMARK   16  A    between atoms: _29  and  _32
REMARK   17  A    between atoms: _32  and  _33
REMARK   18  A    between atoms: _33  and  _34
REMARK   19  A    between atoms: _39  and  _41
REMARK   20  A    between atoms: _41  and  _42
REMARK   21  A    between atoms: _44  and  _46
REMARK   22  A    between atoms: _46  and  _47
REMARK   23  A    between atoms: _46  and  _49
REMARK   24  A    between atoms: _49  and  _50
REMARK   25  A    between atoms: _55  and  _56
REMARK   26  A    between atoms: _58  and  _60
REMARK   27  A    between atoms: _60  and  _61
REMARK   28  A    between atoms: _60  and  _63
REMARK   29  A    between atoms: _63  and  _64
REMARK   30  A    between atoms: _67  and  _69
REMARK   31  A    between atoms: _69  and  _70
REMARK   32  A    between atoms: _69  and  _72
REMARK   33  A    between atoms: _75  and  _77
REMARK   34  A    between atoms: _77  and  _78
REMARK   35  A    between atoms: _77  and  _80
REMARK   36  A    between atoms: _80  and  _81
REMARK   37  A    between atoms: _84  and  _86
REMARK   38  A    between atoms: _86  and  _87
REMARK   39  A    between atoms: _86  and  _89
REMARK   40  A    between atoms: _89  and  _90
REMARK   41  A    between atoms: _93  and  _95
REMARK   42  A    between atoms: _95  and  _96
REMARK   43  A    between atoms: _98  and  _100
REMARK   44  A    between atoms: _100  and  _101
REMARK   45  A    between atoms: _100  and  _103
REMARK   46  A    between atoms: _103  and  _104
REMARK   47  A    between atoms: _106  and  _108
REMARK   48  A    between atoms: _108  and  _109
REMARK   49  A    between atoms: _108  and  _111
REMARK   50  A    between atoms: _111  and  _112
REMARK   51  A    between atoms: _114  and  _116
REMARK   52  A    between atoms: _116  and  _117
REMARK   53  A    between atoms: _116  and  _119
REMARK   54  A    between atoms: _119  and  _120
REMARK   55  A    between atoms: _125  and  _127
REMARK   56  A    between atoms: _127  and  _128
REMARK   57  A    between atoms: _127  and  _130
REMARK   58  A    between atoms: _130  and  _131
REMARK   59  A    between atoms: _137  and  _139
REMARK   60  A    between atoms: _139  and  _140
REMARK   61  A    between atoms: _143  and  _145
REMARK   62  A    between atoms: _145  and  _146
REMARK   63  A    between atoms: _145  and  _148
REMARK   64  A    between atoms: _151  and  _153
REMARK   65  A    between atoms: _153  and  _154
REMARK   66  A    between atoms: _153  and  _156
REMARK   67  A    between atoms: _156  and  _157
REMARK   68  A    between atoms: _162  and  _163
REMARK   69  A    between atoms: _165  and  _167
REMARK   70  A    between atoms: _167  and  _168
REMARK   71  A    between atoms: _167  and  _170
REMARK   72  A    between atoms: _174  and  _175
REMARK   73  A    between atoms: _180  and  _182
REMARK   74  A    between atoms: _182  and  _183
REMARK   75  A    between atoms: _182  and  _185
REMARK   76  A    between atoms: _185  and  _186
REMARK   77  A    between atoms: _191  and  _192
REMARK   78  A    between atoms: _194  and  _196
REMARK   79  A    between atoms: _196  and  _197
REMARK   80  A    between atoms: _196  and  _199
REMARK   81  A    between atoms: _199  and  _200
REMARK   82  A    between atoms: _203  and  _205
REMARK   83  A    between atoms: _205  and  _206
REMARK   84  A    between atoms: _205  and  _208
REMARK   85  A    between atoms: _208  and  _209
REMARK   86  A    between atoms: _209  and  _210
REMARK   87  A    between atoms: _215  and  _217
REMARK   88  A    between atoms: _217  and  _218
REMARK   89  A    between atoms: _220  and  _222
REMARK   90  A    between atoms: _222  and  _223
REMARK   91  A    between atoms: _222  and  _225
REMARK   92  A    between atoms: _225  and  _226
REMARK   93  A    between atoms: _226  and  _227
REMARK   94  A    between atoms: _227  and  _228
REMARK   95  A    between atoms: _228  and  _229
REMARK   96  A    between atoms: _233  and  _235
REMARK   97  A    between atoms: _235  and  _236
REMARK   98  A    between atoms: _235  and  _238
REMARK   99  A    between atoms: _238  and  _239
REMARK  100  A    between atoms: _249  and  _251
REMARK  101  A    between atoms: _251  and  _252
REMARK  102  A    between atoms: _251  and  _254
REMARK  103  A    between atoms: _254  and  _255
REMARK  104  A    between atoms: _258  and  _260
REMARK  105  A    between atoms: _260  and  _261
REMARK  106  A    between atoms: _260  and  _263
REMARK  107  A    between atoms: _263  and  _264
REMARK  108  A    between atoms: _264  and  _265
REMARK  109  A    between atoms: _265  and  _266
REMARK  110  A    between atoms: _266  and  _267
REMARK  111  A    between atoms: _271  and  _273
REMARK  112  A    between atoms: _273  and  _274
REMARK  113  A    between atoms: _273  and  _276
REMARK  114  A    between atoms: _276  and  _277
REMARK  115  A    between atoms: _283  and  _285
REMARK  116  A    between atoms: _285  and  _286
REMARK  117  A    between atoms: _285  and  _288
REMARK  118  A    between atoms: _288  and  _289
REMARK  119  A    between atoms: _295  and  _297
REMARK  120  A    between atoms: _297  and  _298
REMARK  121  A    between atoms: _297  and  _300
REMARK  122  A    between atoms: _300  and  _301
REMARK  123  A    between atoms: _304  and  _306
REMARK  124  A    between atoms: _306  and  _307
REMARK  125  A    between atoms: _306  and  _309
REMARK  126  A    between atoms: _309  and  _310
REMARK  127  A    between atoms: _312  and  _314
REMARK  128  A    between atoms: _314  and  _315
REMARK  129  A    between atoms: _314  and  _317
REMARK  130  A    between atoms: _317  and  _318
REMARK  131  A    between atoms: _328  and  _330
REMARK  132  A    between atoms: _330  and  _331
REMARK  133  A    between atoms: _333  and  _335
REMARK  134  A    between atoms: _335  and  _336
REMARK  135  A    between atoms: _335  and  _338
REMARK  136  A    between atoms: _338  and  _339
REMARK  137  A    between atoms: _342  and  _344
REMARK  138  A    between atoms: _344  and  _345
REMARK  139  A    between atoms: _344  and  _347
REMARK  140  A    between atoms: _347  and  _348
REMARK  141  A    between atoms: _351  and  _353
REMARK  142  A    between atoms: _353  and  _354
REMARK  143  A    between atoms: _356  and  _358
REMARK  144  A    between atoms: _358  and  _359
REMARK  145  A    between atoms: _358  and  _361
REMARK  146  A    between atoms: _361  and  _362
REMARK  147  A    between atoms: _365  and  _367
REMARK  148  A    between atoms: _367  and  _368
REMARK  149  A    between atoms: _367  and  _370
REMARK  150  A    between atoms: _370  and  _371
REMARK  151  A    between atoms: _374  and  _376
REMARK  152  A    between atoms: _376  and  _377
REMARK  153  A    between atoms: _380  and  _382
REMARK  154  A    between atoms: _382  and  _383
REMARK  155  A    between atoms: _382  and  _385
REMARK  156  A    between atoms: _385  and  _386
REMARK  157  A    between atoms: _386  and  _387
REMARK  158  A    between atoms: _387  and  _388
REMARK  159  A    between atoms: _397  and  _399
REMARK  160  A    between atoms: _399  and  _400
REMARK  161  A    between atoms: _399  and  _402
REMARK  162  A    between atoms: _402  and  _403
REMARK  163  A    between atoms: _406  and  _408
REMARK  164  A    between atoms: _408  and  _409
REMARK  165  A    between atoms: _408  and  _411
REMARK  166  A    between atoms: _411  and  _412
REMARK  167  A    between atoms: _417  and  _418
REMARK  168  A    between atoms: _420  and  _422
REMARK  169  A    between atoms: _422  and  _423
REMARK  170  A    between atoms: _422  and  _425
REMARK  171  A    between atoms: _425  and  _426
REMARK  172  A    between atoms: _429  and  _431
REMARK  173  A    between atoms: _431  and  _432
REMARK  174  A    between atoms: _431  and  _434
REMARK  175  A    between atoms: _437  and  _439
REMARK  176  A    between atoms: _439  and  _440
REMARK  177  A    between atoms: _439  and  _442
REMARK  178  A    between atoms: _442  and  _443
REMARK  179  A    between atoms: _446  and  _448
REMARK  180  A    between atoms: _448  and  _449
REMARK  181  A    between atoms: _448  and  _451
REMARK  182  A    between atoms: _451  and  _452
REMARK  183  A    between atoms: _454  and  _456
REMARK  184  A    between atoms: _456  and  _457
REMARK  185  A    between atoms: _459  and  _461
REMARK  186  A    between atoms: _461  and  _462
REMARK  187  A    between atoms: _461  and  _464
REMARK  188  A    between atoms: _464  and  _465
REMARK  189  A    between atoms: _468  and  _470
REMARK  190  A    between atoms: _470  and  _471
REMARK  191  A    between atoms: _470  and  _473
REMARK  192  A    between atoms: _473  and  _474
REMARK  193  A    between atoms: _477  and  _479
REMARK  194  A    between atoms: _479  and  _480
REMARK  195  A    between atoms: _479  and  _482
REMARK  196  A    between atoms: _482  and  _483
REMARK  197  A    between atoms: _488  and  _490
REMARK  198  A    between atoms: _490  and  _491
REMARK  199  A    between atoms: _490  and  _493
REMARK  200  A    between atoms: _493  and  _494
REMARK  201  A    between atoms: _494  and  _495
REMARK  202  A    between atoms: _495  and  _496
REMARK  203  A    between atoms: _505  and  _507
REMARK  204  A    between atoms: _507  and  _508
REMARK  205  A    between atoms: _507  and  _510
REMARK  206  A    between atoms: _513  and  _515
REMARK  207  A    between atoms: _515  and  _516
REMARK  208  A    between atoms: _518  and  _520
REMARK  209  A    between atoms: _520  and  _521
REMARK  210  A    between atoms: _524  and  _526
REMARK  211  A    between atoms: _526  and  _527
REMARK  212  A    between atoms: _526  and  _529
REMARK  213  A    between atoms: _532  and  _534
REMARK  214  A    between atoms: _534  and  _535
REMARK  215  A    between atoms: _534  and  _537
REMARK  216  A    between atoms: _537  and  _538
REMARK  217  A    between atoms: _538  and  _539
REMARK                            x       y       z     vdW  Elec       q    Type
REMARK                         _______ _______ _______ _____ _____    ______ ____
ROOT
ATOM      1  C   ALA A   2      10.566   5.925  21.463  0.00  0.00    +0.241 C 
ATOM      2  O   ALA A   2       9.542   6.346  22.005  0.00  0.00    -0.273 OA
ATOM      3  N   ARG A   3      10.960   6.318  20.256  0.00  0.00    -0.298 N 
ATOM      4  H   ARG A   3      11.854   5.953  19.871  0.00  0.00    +0.150 HD
ENDROOT
BRANCH   1   5
ATOM      5  CA  ALA A   2      11.457   4.915  22.178  0.00  0.00    +0.149 C 
ATOM      6  CB  ALA A   2      11.028   3.492  21.812  0.00  0.00    +0.031 C 
BRANCH   5   8
ATOM      7  C   ILE A   1      11.858   6.205  24.185  0.00  0.00    +0.238 C 
ATOM      8  N   ALA A   2      11.333   5.123  23.617  0.00  0.00    -0.297 N 
ATOM      9  H   ALA A   2      10.832   4.423  24.201  0.00  0.00    +0.150 HD
ATOM     10  O   ILE A   1      12.474   7.057  23.539  0.00  0.00    -0.274 OA
BRANCH   7  11
ATOM     11  CA  ILE A   1      11.644   6.365  25.693  0.00  0.00    +0.145 C 
BRANCH  11  12
ATOM     12  N   ILE A   1      11.129   5.184  26.371  0.00  0.00    -0.238 NA
ATOM     13  H   ILE A   1      11.761   4.389  26.592  0.00  0.00    +0.142 HD
ENDBRANCH  11  12
BRANCH  11  14
ATOM     14  CB  ILE A   1      12.955   6.869  26.357  0.00  0.00    +0.025 C 
ATOM     15  CG2 ILE A   1      12.679   7.289  27.814  0.00  0.00    +0.002 C 
BRANCH  14  16
ATOM     16  CG1 ILE A   1      14.020   5.773  26.336  0.00  0.00    +0.002 C 
ATOM     17  CD1 ILE A   1      15.358   6.222  26.915  0.00  0.00    +0.000 C 
ENDBRANCH  14  16
ENDBRANCH  11  14
ENDBRANCH   7  11
ENDBRANCH   5   8
ENDBRANCH   1   5
BRANCH   3  18
ATOM     18  CA  ARG A   3      10.166   7.252  19.455  0.00  0.00    +0.137 C 
BRANCH  18  19
ATOM     19  C   ARG A   3       9.558   6.439  18.311  0.00  0.00    +0.227 C 
ATOM     20  O   ARG A   3      10.215   5.555  17.759  0.00  0.00    -0.286 OA
ENDBRANCH  18  19
BRANCH  18  21
ATOM     21  CB  ARG A   3      11.057   8.356  18.877  0.00  0.00    +0.031 C 
BRANCH  21  22
ATOM     22  CG  ARG A   3      11.878   9.122  19.918  0.00  0.00    +0.045 C 
BRANCH  22  23
ATOM     23  CD  ARG A   3      10.988   9.887  20.881  0.00  0.00    +0.174 C 
BRANCH  23  24
ATOM     24  NE  ARG A   3      11.690  11.025  21.471  0.00  0.00    -0.265 N 
ATOM     25  CZ  ARG A   3      12.459  10.975  22.556  0.00  0.00    +0.342 C 
ATOM     26  NH2 ARG A   3      12.641   9.832  23.210  0.00  0.00    -0.292 N 
ATOM     27 HH21 ARG A   3      13.245   9.808  24.057  0.00  0.00    +0.255 HD
ATOM     28 HH22 ARG A   3      12.180   8.962  22.875  0.00  0.00    +0.255 HD
ATOM     29  NH1 ARG A   3      13.060  12.079  22.983  0.00  0.00    -0.292 N 
ATOM     30 HH11 ARG A   3      13.663  12.049  23.830  0.00  0.00    +0.255 HD
ATOM     31 HH12 ARG A   3      12.928  12.974  22.470  0.00  0.00    +0.255 HD
ATOM     32  HE  ARG A   3      11.580  11.948  21.005  0.00  0.00    +0.259 HD
ENDBRANCH  23  24
ENDBRANCH  22  23
ENDBRANCH  21  22
ENDBRANCH  18  21
ENDBRANCH   3  18
TORSDOF 12
REMARK  Name = ../refined-set-2016/4h3g/4h3g_pocket.pdb
REMARK  217 active torsions:
REMARK  status: ('A' for Active; 'I' for Inactive)
REMARK    1  A    between atoms: _1  and  _3
REMARK    2  A    between atoms: _3  and  _4
REMARK    3  A    between atoms: _3  and  _6
REMARK    4  A    between atoms: _6  and  _7
REMARK    5  A    between atoms: _7  and  _8
REMARK    6  A    between atoms: _8  and  _9
REMARK    7  A    between atoms: _9  and  _10
REMARK    8  A    between atoms: _14  and  _16
REMARK    9  A    between atoms: _16  and  _17
REMARK   10  A    between atoms: _16  and  _19
REMARK   11  A    between atoms: _19  and  _20
REMARK   12  A    between atoms: _22  and  _24
REMARK   13  A    between atoms: _24  and  _25
REMARK   14  A    between atoms: _27  and  _29
REMARK   15  A    between atoms: _29  and  _30
REMARK   16  A    between atoms: _29  and  _32
REMARK   17  A    between atoms: _32  and  _33
REMARK   18  A    between atoms: _33  and  _34
REMARK   19  A    between atoms: _39  and  _41
REMARK   20  A    between atoms: _41  and  _42
REMARK   21  A    between atoms: _44  and  _46
REMARK   22  A    between atoms: _46  and  _47
REMARK   23  A    between atoms: _46  and  _49
REMARK   24  A    between atoms: _49  and  _50
REMARK   25  A    between atoms: _55  and  _56
REMARK   26  A    between atoms: _58  and  _60
REMARK   27  A    between atoms: _60  and  _61
REMARK   28  A    between atoms: _60  and  _63
REMARK   29  A    between atoms: _63  and  _64
REMARK   30  A    between atoms: _67  and  _69
REMARK   31  A    between atoms: _69  and  _70
REMARK   32  A    between atoms: _69  and  _72
REMARK   33  A    between atoms: _75  and  _77
REMARK   34  A    between atoms: _77  and  _78
REMARK   35  A    between atoms: _77  and  _80
REMARK   36  A    between atoms: _80  and  _81
REMARK   37  A    between atoms: _84  and  _86
REMARK   38  A    between atoms: _86  and  _87
REMARK   39  A    between atoms: _86  and  _89
REMARK   40  A    between atoms: _89  and  _90
REMARK   41  A    between atoms: _93  and  _95
REMARK   42  A    between atoms: _95  and  _96
REMARK   43  A    between atoms: _98  and  _100
REMARK   44  A    between atoms: _100  and  _101
REMARK   45  A    between atoms: _100  and  _103
REMARK   46  A    between atoms: _103  and  _104
REMARK   47  A    between atoms: _106  and  _108
REMARK   48  A    between atoms: _108  and  _109
REMARK   49  A    between atoms: _108  and  _111
REMARK   50  A    between atoms: _111  and  _112
REMARK   51  A    between atoms: _114  and  _116
REMARK   52  A    between atoms: _116  and  _117
REMARK   53  A    between atoms: _116  and  _119
REMARK   54  A    between atoms: _119  and  _120
REMARK   55  A    between atoms: _125  and  _127
REMARK   56  A    between atoms: _127  and  _128
REMARK   57  A    between atoms: _127  and  _130
REMARK   58  A    between atoms: _130  and  _131
REMARK   59  A    between atoms: _137  and  _139
REMARK   60  A    between atoms: _139  and  _140
REMARK   61  A    between atoms: _143  and  _145
REMARK   62  A    between atoms: _145  and  _146
REMARK   63  A    between atoms: _145  and  _148
REMARK   64  A    between atoms: _151  and  _153
REMARK   65  A    between atoms: _153  and  _154
REMARK   66  A    between atoms: _153  and  _156
REMARK   67  A    between atoms: _156  and  _157
REMARK   68  A    between atoms: _162  and  _163
REMARK   69  A    between atoms: _165  and  _167
REMARK   70  A    between atoms: _167  and  _168
REMARK   71  A    between atoms: _167  and  _170
REMARK   72  A    between atoms: _174  and  _175
REMARK   73  A    between atoms: _180  and  _182
REMARK   74  A    between atoms: _182  and  _183
REMARK   75  A    between atoms: _182  and  _185
REMARK   76  A    between atoms: _185  and  _186
REMARK   77  A    between atoms: _191  and  _192
REMARK   78  A    between atoms: _194  and  _196
REMARK   79  A    between atoms: _196  and  _197
REMARK   80  A    between atoms: _196  and  _199
REMARK   81  A    between atoms: _199  and  _200
REMARK   82  A    between atoms: _203  and  _205
REMARK   83  A    between atoms: _205  and  _206
REMARK   84  A    between atoms: _205  and  _208
REMARK   85  A    between atoms: _208  and  _209
REMARK   86  A    between atoms: _209  and  _210
REMARK   87  A    between atoms: _215  and  _217
REMARK   88  A    between atoms: _217  and  _218
REMARK   89  A    between atoms: _220  and  _222
REMARK   90  A    between atoms: _222  and  _223
REMARK   91  A    between atoms: _222  and  _225
REMARK   92  A    between atoms: _225  and  _226
REMARK   93  A    between atoms: _226  and  _227
REMARK   94  A    between atoms: _227  and  _228
REMARK   95  A    between atoms: _228  and  _229
REMARK   96  A    between atoms: _233  and  _235
REMARK   97  A    between atoms: _235  and  _236
REMARK   98  A    between atoms: _235  and  _238
REMARK   99  A    between atoms: _238  and  _239
REMARK  100  A    between atoms: _249  and  _251
REMARK  101  A    between atoms: _251  and  _252
REMARK  102  A    between atoms: _251  and  _254
REMARK  103  A    between atoms: _254  and  _255
REMARK  104  A    between atoms: _258  and  _260
REMARK  105  A    between atoms: _260  and  _261
REMARK  106  A    between atoms: _260  and  _263
REMARK  107  A    between atoms: _263  and  _264
REMARK  108  A    between atoms: _264  and  _265
REMARK  109  A    between atoms: _265  and  _266
REMARK  110  A    between atoms: _266  and  _267
REMARK  111  A    between atoms: _271  and  _273
REMARK  112  A    between atoms: _273  and  _274
REMARK  113  A    between atoms: _273  and  _276
REMARK  114  A    between atoms: _276  and  _277
REMARK  115  A    between atoms: _283  and  _285
REMARK  116  A    between atoms: _285  and  _286
REMARK  117  A    between atoms: _285  and  _288
REMARK  118  A    between atoms: _288  and  _289
REMARK  119  A    between atoms: _295  and  _297
REMARK  120  A    between atoms: _297  and  _298
REMARK  121  A    between atoms: _297  and  _300
REMARK  122  A    between atoms: _300  and  _301
REMARK  123  A    between atoms: _304  and  _306
REMARK  124  A    between atoms: _306  and  _307
REMARK  125  A    between atoms: _306  and  _309
REMARK  126  A    between atoms: _309  and  _310
REMARK  127  A    between atoms: _312  and  _314
REMARK  128  A    between atoms: _314  and  _315
REMARK  129  A    between atoms: _314  and  _317
REMARK  130  A    between atoms: _317  and  _318
REMARK  131  A    between atoms: _328  and  _330
REMARK  132  A    between atoms: _330  and  _331
REMARK  133  A    between atoms: _333  and  _335
REMARK  134  A    between atoms: _335  and  _336
REMARK  135  A    between atoms: _335  and  _338
REMARK  136  A    between atoms: _338  and  _339
REMARK  137  A    between atoms: _342  and  _344
REMARK  138  A    between atoms: _344  and  _345
REMARK  139  A    between atoms: _344  and  _347
REMARK  140  A    between atoms: _347  and  _348
REMARK  141  A    between atoms: _351  and  _353
REMARK  142  A    between atoms: _353  and  _354
REMARK  143  A    between atoms: _356  and  _358
REMARK  144  A    between atoms: _358  and  _359
REMARK  145  A    between atoms: _358  and  _361
REMARK  146  A    between atoms: _361  and  _362
REMARK  147  A    between atoms: _365  and  _367
REMARK  148  A    between atoms: _367  and  _368
REMARK  149  A    between atoms: _367  and  _370
REMARK  150  A    between atoms: _370  and  _371
REMARK  151  A    between atoms: _374  and  _376
REMARK  152  A    between atoms: _376  and  _377
REMARK  153  A    between atoms: _380  and  _382
REMARK  154  A    between atoms: _382  and  _383
REMARK  155  A    between atoms: _382  and  _385
REMARK  156  A    between atoms: _385  and  _386
REMARK  157  A    between atoms: _386  and  _387
REMARK  158  A    between atoms: _387  and  _388
REMARK  159  A    between atoms: _397  and  _399
REMARK  160  A    between atoms: _399  and  _400
REMARK  161  A    between atoms: _399  and  _402
REMARK  162  A    between atoms: _402  and  _403
REMARK  163  A    between atoms: _406  and  _408
REMARK  164  A    between atoms: _408  and  _409
REMARK  165  A    between atoms: _408  and  _411
REMARK  166  A    between atoms: _411  and  _412
REMARK  167  A    between atoms: _417  and  _418
REMARK  168  A    between atoms: _420  and  _422
REMARK  169  A    between atoms: _422  and  _423
REMARK  170  A    between atoms: _422  and  _425
REMARK  171  A    between atoms: _425  and  _426
REMARK  172  A    between atoms: _429  and  _431
REMARK  173  A    between atoms: _431  and  _432
REMARK  174  A    between atoms: _431  and  _434
REMARK  175  A    between atoms: _437  and  _439
REMARK  176  A    between atoms: _439  and  _440
REMARK  177  A    between atoms: _439  and  _442
REMARK  178  A    between atoms: _442  and  _443
REMARK  179  A    between atoms: _446  and  _448
REMARK  180  A    between atoms: _448  and  _449
REMARK  181  A    between atoms: _448  and  _451
REMARK  182  A    between atoms: _451  and  _452
REMARK  183  A    between atoms: _454  and  _456
REMARK  184  A    between atoms: _456  and  _457
REMARK  185  A    between atoms: _459  and  _461
REMARK  186  A    between atoms: _461  and  _462
REMARK  187  A    between atoms: _461  and  _464
REMARK  188  A    between atoms: _464  and  _465
REMARK  189  A    between atoms: _468  and  _470
REMARK  190  A    between atoms: _470  and  _471
REMARK  191  A    between atoms: _470  and  _473
REMARK  192  A    between atoms: _473  and  _474
REMARK  193  A    between atoms: _477  and  _479
REMARK  194  A    between atoms: _479  and  _480
REMARK  195  A    between atoms: _479  and  _482
REMARK  196  A    between atoms: _482  and  _483
REMARK  197  A    between atoms: _488  and  _490
REMARK  198  A    between atoms: _490  and  _491
REMARK  199  A    between atoms: _490  and  _493
REMARK  200  A    between atoms: _493  and  _494
REMARK  201  A    between atoms: _494  and  _495
REMARK  202  A    between atoms: _495  and  _496
REMARK  203  A    between atoms: _505  and  _507
REMARK  204  A    between atoms: _507  and  _508
REMARK  205  A    between atoms: _507  and  _510
REMARK  206  A    between atoms: _513  and  _515
REMARK  207  A    between atoms: _515  and  _516
REMARK  208  A    between atoms: _518  and  _520
REMARK  209  A    between atoms: _520  and  _521
REMARK  210  A    between atoms: _524  and  _526
REMARK  211  A    between atoms: _526  and  _527
REMARK  212  A    between atoms: _526  and  _529
REMARK  213  A    between atoms: _532  and  _534
REMARK  214  A    between atoms: _534  and  _535
REMARK  215  A    between atoms: _534  and  _537
REMARK  216  A    between atoms: _537  and  _538
REMARK  217  A    between atoms: _538  and  _539
REMARK                            x       y       z     vdW  Elec       q    Type
REMARK                         _______ _______ _______ _____ _____    ______ ____
ROOT
ATOM      1  CA  LEU A   1      34.667   1.122  26.674  0.00  0.00    +0.133 C 
ENDROOT
BRANCH   1   2
ATOM      2  N   LEU A   1      34.238   0.063  27.592  0.00  0.00    -0.239 NA
ATOM      3  H   LEU A   1      33.863   0.314  28.529  0.00  0.00    +0.142 HD
ENDBRANCH   1   2
BRANCH   1   4
ATOM      4  C   LEU A   1      36.117   1.430  27.019  0.00  0.00    +0.224 C 
ATOM      5  O   LEU A   1      36.434   1.720  28.176  0.00  0.00    -0.287 OA
ENDBRANCH   1   4
BRANCH   1   6
ATOM      6  CB  LEU A   1      33.803   2.378  26.839  0.00  0.00    +0.025 C 
BRANCH   6   7
ATOM      7  CG  LEU A   1      32.289   2.197  26.658  0.00  0.00    +0.002 C 
ATOM      8  CD2 LEU A   1      31.605   3.574  26.633  0.00  0.00    +0.000 C 
ATOM      9  CD1 LEU A   1      32.007   1.445  25.356  0.00  0.00    +0.000 C 
ENDBRANCH   6   7
ENDBRANCH   1   6
TORSDOF 4
REMARK  Name = ../refined-set-2016/4h3g/4h3g_pocket.pdb
REMARK  217 active torsions:
REMARK  status: ('A' for Active; 'I' for Inactive)
REMARK    1  A    between atoms: _1  and  _3
REMARK    2  A    between atoms: _3  and  _4
REMARK    3  A    between atoms: _3  and  _6
REMARK    4  A    between atoms: _6  and  _7
REMARK    5  A    between atoms: _7  and  _8
REMARK    6  A    between atoms: _8  and  _9
REMARK    7  A    between atoms: _9  and  _10
REMARK    8  A    between atoms: _14  and  _16
REMARK    9  A    between atoms: _16  and  _17
REMARK   10  A    between atoms: _16  and  _19
REMARK   11  A    between atoms: _19  and  _20
REMARK   12  A    between atoms: _22  and  _24
REMARK   13  A    between atoms: _24  and  _25
REMARK   14  A    between atoms: _27  and  _29
REMARK   15  A    between atoms: _29  and  _30
REMARK   16  A    between atoms: _29  and  _32
REMARK   17  A    between atoms: _32  and  _33
REMARK   18  A    between atoms: _33  and  _34
REMARK   19  A    between atoms: _39  and  _41
REMARK   20  A    between atoms: _41  and  _42
REMARK   21  A    between atoms: _44  and  _46
REMARK   22  A    between atoms: _46  and  _47
REMARK   23  A    between atoms: _46  and  _49
REMARK   24  A    between atoms: _49  and  _50
REMARK   25  A    between atoms: _55  and  _56
REMARK   26  A    between atoms: _58  and  _60
REMARK   27  A    between atoms: _60  and  _61
REMARK   28  A    between atoms: _60  and  _63
REMARK   29  A    between atoms: _63  and  _64
REMARK   30  A    between atoms: _67  and  _69
REMARK   31  A    between atoms: _69  and  _70
REMARK   32  A    between atoms: _69  and  _72
REMARK   33  A    between atoms: _75  and  _77
REMARK   34  A    between atoms: _77  and  _78
REMARK   35  A    between atoms: _77  and  _80
REMARK   36  A    between atoms: _80  and  _81
REMARK   37  A    between atoms: _84  and  _86
REMARK   38  A    between atoms: _86  and  _87
REMARK   39  A    between atoms: _86  and  _89
REMARK   40  A    between atoms: _89  and  _90
REMARK   41  A    between atoms: _93  and  _95
REMARK   42  A    between atoms: _95  and  _96
REMARK   43  A    between atoms: _98  and  _100
REMARK   44  A    between atoms: _100  and  _101
REMARK   45  A    between atoms: _100  and  _103
REMARK   46  A    between atoms: _103  and  _104
REMARK   47  A    between atoms: _106  and  _108
REMARK   48  A    between atoms: _108  and  _109
REMARK   49  A    between atoms: _108  and  _111
REMARK   50  A    between atoms: _111  and  _112
REMARK   51  A    between atoms: _114  and  _116
REMARK   52  A    between atoms: _116  and  _117
REMARK   53  A    between atoms: _116  and  _119
REMARK   54  A    between atoms: _119  and  _120
REMARK   55  A    between atoms: _125  and  _127
REMARK   56  A    between atoms: _127  and  _128
REMARK   57  A    between atoms: _127  and  _130
REMARK   58  A    between atoms: _130  and  _131
REMARK   59  A    between atoms: _137  and  _139
REMARK   60  A    between atoms: _139  and  _140
REMARK   61  A    between atoms: _143  and  _145
REMARK   62  A    between atoms: _145  and  _146
REMARK   63  A    between atoms: _145  and  _148
REMARK   64  A    between atoms: _151  and  _153
REMARK   65  A    between atoms: _153  and  _154
REMARK   66  A    between atoms: _153  and  _156
REMARK   67  A    between atoms: _156  and  _157
REMARK   68  A    between atoms: _162  and  _163
REMARK   69  A    between atoms: _165  and  _167
REMARK   70  A    between atoms: _167  and  _168
REMARK   71  A    between atoms: _167  and  _170
REMARK   72  A    between atoms: _174  and  _175
REMARK   73  A    between atoms: _180  and  _182
REMARK   74  A    between atoms: _182  and  _183
REMARK   75  A    between atoms: _182  and  _185
REMARK   76  A    between atoms: _185  and  _186
REMARK   77  A    between atoms: _191  and  _192
REMARK   78  A    between atoms: _194  and  _196
REMARK   79  A    between atoms: _196  and  _197
REMARK   80  A    between atoms: _196  and  _199
REMARK   81  A    between atoms: _199  and  _200
REMARK   82  A    between atoms: _203  and  _205
REMARK   83  A    between atoms: _205  and  _206
REMARK   84  A    between atoms: _205  and  _208
REMARK   85  A    between atoms: _208  and  _209
REMARK   86  A    between atoms: _209  and  _210
REMARK   87  A    between atoms: _215  and  _217
REMARK   88  A    between atoms: _217  and  _218
REMARK   89  A    between atoms: _220  and  _222
REMARK   90  A    between atoms: _222  and  _223
REMARK   91  A    between atoms: _222  and  _225
REMARK   92  A    between atoms: _225  and  _226
REMARK   93  A    between atoms: _226  and  _227
REMARK   94  A    between atoms: _227  and  _228
REMARK   95  A    between atoms: _228  and  _229
REMARK   96  A    between atoms: _233  and  _235
REMARK   97  A    between atoms: _235  and  _236
REMARK   98  A    between atoms: _235  and  _238
REMARK   99  A    between atoms: _238  and  _239
REMARK  100  A    between atoms: _249  and  _251
REMARK  101  A    between atoms: _251  and  _252
REMARK  102  A    between atoms: _251  and  _254
REMARK  103  A    between atoms: _254  and  _255
REMARK  104  A    between atoms: _258  and  _260
REMARK  105  A    between atoms: _260  and  _261
REMARK  106  A    between atoms: _260  and  _263
REMARK  107  A    between atoms: _263  and  _264
REMARK  108  A    between atoms: _264  and  _265
REMARK  109  A    between atoms: _265  and  _266
REMARK  110  A    between atoms: _266  and  _267
REMARK  111  A    between atoms: _271  and  _273
REMARK  112  A    between atoms: _273  and  _274
REMARK  113  A    between atoms: _273  and  _276
REMARK  114  A    between atoms: _276  and  _277
REMARK  115  A    between atoms: _283  and  _285
REMARK  116  A    between atoms: _285  and  _286
REMARK  117  A    between atoms: _285  and  _288
REMARK  118  A    between atoms: _288  and  _289
REMARK  119  A    between atoms: _295  and  _297
REMARK  120  A    between atoms: _297  and  _298
REMARK  121  A    between atoms: _297  and  _300
REMARK  122  A    between atoms: _300  and  _301
REMARK  123  A    between atoms: _304  and  _306
REMARK  124  A    between atoms: _306  and  _307
REMARK  125  A    between atoms: _306  and  _309
REMARK  126  A    between atoms: _309  and  _310
REMARK  127  A    between atoms: _312  and  _314
REMARK  128  A    between atoms: _314  and  _315
REMARK  129  A    between atoms: _314  and  _317
REMARK  130  A    between atoms: _317  and  _318
REMARK  131  A    between atoms: _328  and  _330
REMARK  132  A    between atoms: _330  and  _331
REMARK  133  A    between atoms: _333  and  _335
REMARK  134  A    between atoms: _335  and  _336
REMARK  135  A    between atoms: _335  and  _338
REMARK  136  A    between atoms: _338  and  _339
REMARK  137  A    between atoms: _342  and  _344
REMARK  138  A    between atoms: _344  and  _345
REMARK  139  A    between atoms: _344  and  _347
REMARK  140  A    between atoms: _347  and  _348
REMARK  141  A    between atoms: _351  and  _353
REMARK  142  A    between atoms: _353  and  _354
REMARK  143  A    between atoms: _356  and  _358
REMARK  144  A    between atoms: _358  and  _359
REMARK  145  A    between atoms: _358  and  _361
REMARK  146  A    between atoms: _361  and  _362
REMARK  147  A    between atoms: _365  and  _367
REMARK  148  A    between atoms: _367  and  _368
REMARK  149  A    between atoms: _367  and  _370
REMARK  150  A    between atoms: _370  and  _371
REMARK  151  A    between atoms: _374  and  _376
REMARK  152  A    between atoms: _376  and  _377
REMARK  153  A    between atoms: _380  and  _382
REMARK  154  A    between atoms: _382  and  _383
REMARK  155  A    between atoms: _382  and  _385
REMARK  156  A    between atoms: _385  and  _386
REMARK  157  A    between atoms: _386  and  _387
REMARK  158  A    between atoms: _387  and  _388
REMARK  159  A    between atoms: _397  and  _399
REMARK  160  A    between atoms: _399  and  _400
REMARK  161  A    between atoms: _399  and  _402
REMARK  162  A    between atoms: _402  and  _403
REMARK  163  A    between atoms: _406  and  _408
REMARK  164  A    between atoms: _408  and  _409
REMARK  165  A    between atoms: _408  and  _411
REMARK  166  A    between atoms: _411  and  _412
REMARK  167  A    between atoms: _417  and  _418
REMARK  168  A    between atoms: _420  and  _422
REMARK  169  A    between atoms: _422  and  _423
REMARK  170  A    between atoms: _422  and  _425
REMARK  171  A    between atoms: _425  and  _426
REMARK  172  A    between atoms: _429  and  _431
REMARK  173  A    between atoms: _431  and  _432
REMARK  174  A    between atoms: _431  and  _434
REMARK  175  A    between atoms: _437  and  _439
REMARK  176  A    between atoms: _439  and  _440
REMARK  177  A    between atoms: _439  and  _442
REMARK  178  A    between atoms: _442  and  _443
REMARK  179  A    between atoms: _446  and  _448
REMARK  180  A    between atoms: _448  and  _449
REMARK  181  A    between atoms: _448  and  _451
REMARK  182  A    between atoms: _451  and  _452
REMARK  183  A    between atoms: _454  and  _456
REMARK  184  A    between atoms: _456  and  _457
REMARK  185  A    between atoms: _459  and  _461
REMARK  186  A    between atoms: _461  and  _462
REMARK  187  A    between atoms: _461  and  _464
REMARK  188  A    between atoms: _464  and  _465
REMARK  189  A    between atoms: _468  and  _470
REMARK  190  A    between atoms: _470  and  _471
REMARK  191  A    between atoms: _470  and  _473
REMARK  192  A    between atoms: _473  and  _474
REMARK  193  A    between atoms: _477  and  _479
REMARK  194  A    between atoms: _479  and  _480
REMARK  195  A    between atoms: _479  and  _482
REMARK  196  A    between atoms: _482  and  _483
REMARK  197  A    between atoms: _488  and  _490
REMARK  198  A    between atoms: _490  and  _491
REMARK  199  A    between atoms: _490  and  _493
REMARK  200  A    between atoms: _493  and  _494
REMARK  201  A    between atoms: _494  and  _495
REMARK  202  A    between atoms: _495  and  _496
REMARK  203  A    between atoms: _505  and  _507
REMARK  204  A    between atoms: _507  and  _508
REMARK  205  A    between atoms: _507  and  _510
REMARK  206  A    between atoms: _513  and  _515
REMARK  207  A    between atoms: _515  and  _516
REMARK  208  A    between atoms: _518  and  _520
REMARK  209  A    between atoms: _520  and  _521
REMARK  210  A    between atoms: _524  and  _526
REMARK  211  A    between atoms: _526  and  _527
REMARK  212  A    between atoms: _526  and  _529
REMARK  213  A    between atoms: _532  and  _534
REMARK  214  A    between atoms: _534  and  _535
REMARK  215  A    between atoms: _534  and  _537
REMARK  216  A    between atoms: _537  and  _538
REMARK  217  A    between atoms: _538  and  _539
REMARK                            x       y       z     vdW  Elec       q    Type
REMARK                         _______ _______ _______ _____ _____    ______ ____
ROOT
ATOM      1  CG  TYR A   1      16.884   7.854  30.327  0.00  0.00    -0.020 A 
ATOM      2  CD2 TYR A   1      15.797   8.653  30.660  0.00  0.00    -0.001 A 
ATOM      3  CE2 TYR A   1      15.375   9.670  29.821  0.00  0.00    +0.036 A 
ATOM      4  CZ  TYR A   1      16.045   9.899  28.641  0.00  0.00    +0.134 A 
ATOM      5  CE1 TYR A   1      17.131   9.121  28.288  0.00  0.00    +0.036 A 
ATOM      6  CD1 TYR A   1      17.543   8.102  29.134  0.00  0.00    -0.001 A 
ENDROOT
BRANCH   4   7
ATOM      7  OH  TYR A   1      15.635  10.911  27.803  0.00  0.00    -0.506 OA
ATOM      8  HH  TYR A   1      16.222  10.936  27.006  0.00  0.00    +0.292 HD
ENDBRANCH   4   7
BRANCH   1   9
ATOM      9  CB  TYR A   1      17.305   6.716  31.212  0.00  0.00    +0.051 C 
BRANCH   9  10
ATOM     10  CA  TYR A   1      16.818   5.339  30.751  0.00  0.00    +0.137 C 
BRANCH  10  11
ATOM     11  N   TYR A   1      15.401   5.133  31.064  0.00  0.00    -0.239 NA
ATOM     12  H   TYR A   1      14.954   5.695  31.816  0.00  0.00    +0.142 HD
ENDBRANCH  10  11
BRANCH  10  13
ATOM     13  C   TYR A   1      17.381   4.314  31.732  0.00  0.00    +0.224 C 
ATOM     14  O   TYR A   1      16.610   3.679  32.450  0.00  0.00    -0.287 OA
ENDBRANCH  10  13
ENDBRANCH   9  10
ENDBRANCH   1   9
TORSDOF 5
REMARK  Name = ../refined-set-2016/4h3g/4h3g_pocket.pdb
REMARK  217 active torsions:
REMARK  status: ('A' for Active; 'I' for Inactive)
REMARK    1  A    between atoms: _1  and  _3
REMARK    2  A    between atoms: _3  and  _4
REMARK    3  A    between atoms: _3  and  _6
REMARK    4  A    between atoms: _6  and  _7
REMARK    5  A    between atoms: _7  and  _8
REMARK    6  A    between atoms: _8  and  _9
REMARK    7  A    between atoms: _9  and  _10
REMARK    8  A    between atoms: _14  and  _16
REMARK    9  A    between atoms: _16  and  _17
REMARK   10  A    between atoms: _16  and  _19
REMARK   11  A    between atoms: _19  and  _20
REMARK   12  A    between atoms: _22  and  _24
REMARK   13  A    between atoms: _24  and  _25
REMARK   14  A    between atoms: _27  and  _29
REMARK   15  A    between atoms: _29  and  _30
REMARK   16  A    between atoms: _29  and  _32
REMARK   17  A    between atoms: _32  and  _33
REMARK   18  A    between atoms: _33  and  _34
REMARK   19  A    between atoms: _39  and  _41
REMARK   20  A    between atoms: _41  and  _42
REMARK   21  A    between atoms: _44  and  _46
REMARK   22  A    between atoms: _46  and  _47
REMARK   23  A    between atoms: _46  and  _49
REMARK   24  A    between atoms: _49  and  _50
REMARK   25  A    between atoms: _55  and  _56
REMARK   26  A    between atoms: _58  and  _60
REMARK   27  A    between atoms: _60  and  _61
REMARK   28  A    between atoms: _60  and  _63
REMARK   29  A    between atoms: _63  and  _64
REMARK   30  A    between atoms: _67  and  _69
REMARK   31  A    between atoms: _69  and  _70
REMARK   32  A    between atoms: _69  and  _72
REMARK   33  A    between atoms: _75  and  _77
REMARK   34  A    between atoms: _77  and  _78
REMARK   35  A    between atoms: _77  and  _80
REMARK   36  A    between atoms: _80  and  _81
REMARK   37  A    between atoms: _84  and  _86
REMARK   38  A    between atoms: _86  and  _87
REMARK   39  A    between atoms: _86  and  _89
REMARK   40  A    between atoms: _89  and  _90
REMARK   41  A    between atoms: _93  and  _95
REMARK   42  A    between atoms: _95  and  _96
REMARK   43  A    between atoms: _98  and  _100
REMARK   44  A    between atoms: _100  and  _101
REMARK   45  A    between atoms: _100  and  _103
REMARK   46  A    between atoms: _103  and  _104
REMARK   47  A    between atoms: _106  and  _108
REMARK   48  A    between atoms: _108  and  _109
REMARK   49  A    between atoms: _108  and  _111
REMARK   50  A    between atoms: _111  and  _112
REMARK   51  A    between atoms: _114  and  _116
REMARK   52  A    between atoms: _116  and  _117
REMARK   53  A    between atoms: _116  and  _119
REMARK   54  A    between atoms: _119  and  _120
REMARK   55  A    between atoms: _125  and  _127
REMARK   56  A    between atoms: _127  and  _128
REMARK   57  A    between atoms: _127  and  _130
REMARK   58  A    between atoms: _130  and  _131
REMARK   59  A    between atoms: _137  and  _139
REMARK   60  A    between atoms: _139  and  _140
REMARK   61  A    between atoms: _143  and  _145
REMARK   62  A    between atoms: _145  and  _146
REMARK   63  A    between atoms: _145  and  _148
REMARK   64  A    between atoms: _151  and  _153
REMARK   65  A    between atoms: _153  and  _154
REMARK   66  A    between atoms: _153  and  _156
REMARK   67  A    between atoms: _156  and  _157
REMARK   68  A    between atoms: _162  and  _163
REMARK   69  A    between atoms: _165  and  _167
REMARK   70  A    between atoms: _167  and  _168
REMARK   71  A    between atoms: _167  and  _170
REMARK   72  A    between atoms: _174  and  _175
REMARK   73  A    between atoms: _180  and  _182
REMARK   74  A    between atoms: _182  and  _183
REMARK   75  A    between atoms: _182  and  _185
REMARK   76  A    between atoms: _185  and  _186
REMARK   77  A    between atoms: _191  and  _192
REMARK   78  A    between atoms: _194  and  _196
REMARK   79  A    between atoms: _196  and  _197
REMARK   80  A    between atoms: _196  and  _199
REMARK   81  A    between atoms: _199  and  _200
REMARK   82  A    between atoms: _203  and  _205
REMARK   83  A    between atoms: _205  and  _206
REMARK   84  A    between atoms: _205  and  _208
REMARK   85  A    between atoms: _208  and  _209
REMARK   86  A    between atoms: _209  and  _210
REMARK   87  A    between atoms: _215  and  _217
REMARK   88  A    between atoms: _217  and  _218
REMARK   89  A    between atoms: _220  and  _222
REMARK   90  A    between atoms: _222  and  _223
REMARK   91  A    between atoms: _222  and  _225
REMARK   92  A    between atoms: _225  and  _226
REMARK   93  A    between atoms: _226  and  _227
REMARK   94  A    between atoms: _227  and  _228
REMARK   95  A    between atoms: _228  and  _229
REMARK   96  A    between atoms: _233  and  _235
REMARK   97  A    between atoms: _235  and  _236
REMARK   98  A    between atoms: _235  and  _238
REMARK   99  A    between atoms: _238  and  _239
REMARK  100  A    between atoms: _249  and  _251
REMARK  101  A    between atoms: _251  and  _252
REMARK  102  A    between atoms: _251  and  _254
REMARK  103  A    between atoms: _254  and  _255
REMARK  104  A    between atoms: _258  and  _260
REMARK  105  A    between atoms: _260  and  _261
REMARK  106  A    between atoms: _260  and  _263
REMARK  107  A    between atoms: _263  and  _264
REMARK  108  A    between atoms: _264  and  _265
REMARK  109  A    between atoms: _265  and  _266
REMARK  110  A    between atoms: _266  and  _267
REMARK  111  A    between atoms: _271  and  _273
REMARK  112  A    between atoms: _273  and  _274
REMARK  113  A    between atoms: _273  and  _276
REMARK  114  A    between atoms: _276  and  _277
REMARK  115  A    between atoms: _283  and  _285
REMARK  116  A    between atoms: _285  and  _286
REMARK  117  A    between atoms: _285  and  _288
REMARK  118  A    between atoms: _288  and  _289
REMARK  119  A    between atoms: _295  and  _297
REMARK  120  A    between atoms: _297  and  _298
REMARK  121  A    between atoms: _297  and  _300
REMARK  122  A    between atoms: _300  and  _301
REMARK  123  A    between atoms: _304  and  _306
REMARK  124  A    between atoms: _306  and  _307
REMARK  125  A    between atoms: _306  and  _309
REMARK  126  A    between atoms: _309  and  _310
REMARK  127  A    between atoms: _312  and  _314
REMARK  128  A    between atoms: _314  and  _315
REMARK  129  A    between atoms: _314  and  _317
REMARK  130  A    between atoms: _317  and  _318
REMARK  131  A    between atoms: _328  and  _330
REMARK  132  A    between atoms: _330  and  _331
REMARK  133  A    between atoms: _333  and  _335
REMARK  134  A    between atoms: _335  and  _336
REMARK  135  A    between atoms: _335  and  _338
REMARK  136  A    between atoms: _338  and  _339
REMARK  137  A    between atoms: _342  and  _344
REMARK  138  A    between atoms: _344  and  _345
REMARK  139  A    between atoms: _344  and  _347
REMARK  140  A    between atoms: _347  and  _348
REMARK  141  A    between atoms: _351  and  _353
REMARK  142  A    between atoms: _353  and  _354
REMARK  143  A    between atoms: _356  and  _358
REMARK  144  A    between atoms: _358  and  _359
REMARK  145  A    between atoms: _358  and  _361
REMARK  146  A    between atoms: _361  and  _362
REMARK  147  A    between atoms: _365  and  _367
REMARK  148  A    between atoms: _367  and  _368
REMARK  149  A    between atoms: _367  and  _370
REMARK  150  A    between atoms: _370  and  _371
REMARK  151  A    between atoms: _374  and  _376
REMARK  152  A    between atoms: _376  and  _377
REMARK  153  A    between atoms: _380  and  _382
REMARK  154  A    between atoms: _382  and  _383
REMARK  155  A    between atoms: _382  and  _385
REMARK  156  A    between atoms: _385  and  _386
REMARK  157  A    between atoms: _386  and  _387
REMARK  158  A    between atoms: _387  and  _388
REMARK  159  A    between atoms: _397  and  _399
REMARK  160  A    between atoms: _399  and  _400
REMARK  161  A    between atoms: _399  and  _402
REMARK  162  A    between atoms: _402  and  _403
REMARK  163  A    between atoms: _406  and  _408
REMARK  164  A    between atoms: _408  and  _409
REMARK  165  A    between atoms: _408  and  _411
REMARK  166  A    between atoms: _411  and  _412
REMARK  167  A    between atoms: _417  and  _418
REMARK  168  A    between atoms: _420  and  _422
REMARK  169  A    between atoms: _422  and  _423
REMARK  170  A    between atoms: _422  and  _425
REMARK  171  A    between atoms: _425  and  _426
REMARK  172  A    between atoms: _429  and  _431
REMARK  173  A    between atoms: _431  and  _432
REMARK  174  A    between atoms: _431  and  _434
REMARK  175  A    between atoms: _437  and  _439
REMARK  176  A    between atoms: _439  and  _440
REMARK  177  A    between atoms: _439  and  _442
REMARK  178  A    between atoms: _442  and  _443
REMARK  179  A    between atoms: _446  and  _448
REMARK  180  A    between atoms: _448  and  _449
REMARK  181  A    between atoms: _448  and  _451
REMARK  182  A    between atoms: _451  and  _452
REMARK  183  A    between atoms: _454  and  _456
REMARK  184  A    between atoms: _456  and  _457
REMARK  185  A    between atoms: _459  and  _461
REMARK  186  A    between atoms: _461  and  _462
REMARK  187  A    between atoms: _461  and  _464
REMARK  188  A    between atoms: _464  and  _465
REMARK  189  A    between atoms: _468  and  _470
REMARK  190  A    between atoms: _470  and  _471
REMARK  191  A    between atoms: _470  and  _473
REMARK  192  A    between atoms: _473  and  _474
REMARK  193  A    between atoms: _477  and  _479
REMARK  194  A    between atoms: _479  and  _480
REMARK  195  A    between atoms: _479  and  _482
REMARK  196  A    between atoms: _482  and  _483
REMARK  197  A    between atoms: _488  and  _490
REMARK  198  A    between atoms: _490  and  _491
REMARK  199  A    between atoms: _490  and  _493
REMARK  200  A    between atoms: _493  and  _494
REMARK  201  A    between atoms: _494  and  _495
REMARK  202  A    between atoms: _495  and  _496
REMARK  203  A    between atoms: _505  and  _507
REMARK  204  A    between atoms: _507  and  _508
REMARK  205  A    between atoms: _507  and  _510
REMARK  206  A    between atoms: _513  and  _515
REMARK  207  A    between atoms: _515  and  _516
REMARK  208  A    between atoms: _518  and  _520
REMARK  209  A    between atoms: _520  and  _521
REMARK  210  A    between atoms: _524  and  _526
REMARK  211  A    between atoms: _526  and  _527
REMARK  212  A    between atoms: _526  and  _529
REMARK  213  A    between atoms: _532  and  _534
REMARK  214  A    between atoms: _534  and  _535
REMARK  215  A    between atoms: _534  and  _537
REMARK  216  A    between atoms: _537  and  _538
REMARK  217  A    between atoms: _538  and  _539
REMARK                            x       y       z     vdW  Elec       q    Type
REMARK                         _______ _______ _______ _____ _____    ______ ____
ROOT
ATOM      1  C   SER A   4      27.433   6.280  25.460  0.00  0.00    +0.243 C 
ATOM      2  N   GLY A   5      26.301   6.961  25.293  0.00  0.00    -0.295 N 
ATOM      3  H   GLY A   5      25.498   6.778  25.929  0.00  0.00    +0.150 HD
ATOM      4  O   SER A   4      28.431   6.430  24.747  0.00  0.00    -0.273 OA
ENDROOT
BRANCH   2   5
ATOM      5  CA  GLY A   5      26.163   7.956  24.240  0.00  0.00    +0.176 C 
BRANCH   5   6
ATOM      6  C   GLY A   5      26.488   9.387  24.650  0.00  0.00    +0.243 C 
ATOM      7  N   THR A   6      27.092   9.560  25.823  0.00  0.00    -0.295 N 
ATOM      8  H   THR A   6      27.276   8.728  26.419  0.00  0.00    +0.150 HD
ATOM      9  O   GLY A   5      26.172  10.322  23.924  0.00  0.00    -0.273 OA
BRANCH   7  10
ATOM     10  CA  THR A   6      27.507  10.882  26.305  0.00  0.00    +0.176 C 
BRANCH  10  11
ATOM     11  C   THR A   6      29.005  10.805  26.573  0.00  0.00    +0.243 C 
ATOM     12  O   THR A   6      29.473   9.866  27.206  0.00  0.00    -0.273 OA
ATOM     13  N   THR A   7      29.750  11.790  26.083  0.00  0.00    -0.295 N 
ATOM     14  H   THR A   7      29.289  12.568  25.568  0.00  0.00    +0.150 HD
BRANCH  13  15
ATOM     15  CA  THR A   7      31.204  11.806  26.251  0.00  0.00    +0.176 C 
BRANCH  15  16
ATOM     16  C   THR A   7      31.665  12.104  27.676  0.00  0.00    +0.243 C 
ATOM     17  N   ASN A   8      31.102  13.165  28.253  0.00  0.00    -0.298 N 
ATOM     18  H   ASN A   8      30.367  13.679  27.727  0.00  0.00    +0.150 HD
ATOM     19  O   THR A   7      32.502  11.389  28.235  0.00  0.00    -0.273 OA
BRANCH  17  20
ATOM     20  CA  ASN A   8      31.463  13.647  29.591  0.00  0.00    +0.146 C 
BRANCH  20  21
ATOM     21  C   ASN A   8      30.750  13.036  30.774  0.00  0.00    +0.227 C 
ATOM     22  O   ASN A   8      29.824  12.244  30.633  0.00  0.00    -0.286 OA
ENDBRANCH  20  21
BRANCH  20  23
ATOM     23  CB  ASN A   8      31.186  15.157  29.687  0.00  0.00    +0.112 C 
BRANCH  23  24
ATOM     24  CG  ASN A   8      32.088  15.986  28.802  0.00  0.00    +0.222 C 
ATOM     25  ND2 ASN A   8      31.883  17.301  28.818  0.00  0.00    -0.329 N 
ATOM     26 HD21 ASN A   8      31.130  17.703  29.412  0.00  0.00    +0.145 HD
ATOM     27 HD22 ASN A   8      32.476  17.927  28.236  0.00  0.00    +0.145 HD
ATOM     28  OD1 ASN A   8      32.960  15.462  28.121  0.00  0.00    -0.275 OA
ENDBRANCH  23  24
ENDBRANCH  20  23
ENDBRANCH  17  20
ENDBRANCH  15  16
BRANCH  15  29
ATOM     29  CB  THR A   7      31.850  12.863  25.317  0.00  0.00    +0.137 C 
ATOM     30  CG2 THR A   7      33.365  12.882  25.505  0.00  0.00    +0.034 C 
BRANCH  29  31
ATOM     31  OG1 THR A   7      31.534  12.556  23.944  0.00  0.00    -0.382 OA
ATOM     32  HG1 THR A   7      31.886  11.659  23.718  0.00  0.00    +0.210 HD
ENDBRANCH  29  31
ENDBRANCH  15  29
ENDBRANCH  13  15
ENDBRANCH  10  11
BRANCH  10  33
ATOM     33  CB  THR A   6      26.782  11.276  27.603  0.00  0.00    +0.137 C 
ATOM     34  CG2 THR A   6      27.438  12.511  28.255  0.00  0.00    +0.034 C 
BRANCH  33  35
ATOM     35  OG1 THR A   6      25.422  11.590  27.292  0.00  0.00    -0.382 OA
ATOM     36  HG1 THR A   6      24.985  10.798  26.890  0.00  0.00    +0.210 HD
ENDBRANCH  33  35
ENDBRANCH  10  33
ENDBRANCH   7  10
ENDBRANCH   5   6
ENDBRANCH   2   5
BRANCH   1  37
ATOM     37  CA  SER A   4      27.439   5.275  26.606  0.00  0.00    +0.178 C 
BRANCH  37  40
ATOM     38  C   ASP A   3      26.169   6.586  28.219  0.00  0.00    +0.241 C 
ATOM     39  O   ASP A   3      27.013   7.479  28.228  0.00  0.00    -0.273 OA
ATOM     40  N   SER A   4      26.283   5.496  27.467  0.00  0.00    -0.295 N 
ATOM     41  H   SER A   4      25.528   4.782  27.493  0.00  0.00    +0.150 HD
BRANCH  38  42
ATOM     42  CA  ASP A   3      24.904   6.697  29.064  0.00  0.00    +0.160 C 
BRANCH  42  45
ATOM     43  C   VAL A   2      24.216   5.691  31.169  0.00  0.00    +0.241 C 
ATOM     44  O   VAL A   2      23.304   5.055  30.621  0.00  0.00    -0.273 OA
ATOM     45  N   ASP A   3      25.073   6.452  30.495  0.00  0.00    -0.297 N 
ATOM     46  H   ASP A   3      25.878   6.881  30.995  0.00  0.00    +0.150 HD
BRANCH  43  47
ATOM     47  CA  VAL A   2      24.415   5.610  32.683  0.00  0.00    +0.148 C 
BRANCH  47  50
ATOM     48  C   ILE A   1      23.063   7.350  33.758  0.00  0.00    +0.238 C 
ATOM     49  O   ILE A   1      24.018   8.112  33.877  0.00  0.00    -0.274 OA
ATOM     50  N   VAL A   2      23.162   6.133  33.224  0.00  0.00    -0.297 N 
ATOM     51  H   VAL A   2      22.314   5.532  33.191  0.00  0.00    +0.150 HD
BRANCH  48  52
ATOM     52  CA  ILE A   1      21.674   7.759  34.235  0.00  0.00    +0.145 C 
BRANCH  52  53
ATOM     53  CB  ILE A   1      20.836   8.105  32.977  0.00  0.00    +0.025 C 
ATOM     54  CG2 ILE A   1      19.455   8.594  33.383  0.00  0.00    +0.002 C 
BRANCH  53  55
ATOM     55  CG1 ILE A   1      21.564   9.177  32.151  0.00  0.00    +0.002 C 
ATOM     56  CD1 ILE A   1      20.895   9.505  30.816  0.00  0.00    +0.000 C 
ENDBRANCH  53  55
ENDBRANCH  52  53
BRANCH  52  57
ATOM     57  N   ILE A   1      21.700   8.882  35.171  0.00  0.00    -0.238 NA
ATOM     58  H   ILE A   1      22.275   9.720  34.953  0.00  0.00    +0.142 HD
ENDBRANCH  52  57
ENDBRANCH  48  52
ENDBRANCH  47  50
BRANCH  47  59
ATOM     59  CB  VAL A   2      24.639   4.145  33.102  0.00  0.00    +0.027 C 
ATOM     60  CG2 VAL A   2      24.599   4.033  34.636  0.00  0.00    +0.002 C 
ATOM     61  CG1 VAL A   2      25.971   3.653  32.559  0.00  0.00    +0.002 C 
ENDBRANCH  47  59
ENDBRANCH  43  47
ENDBRANCH  42  45
BRANCH  42  62
ATOM     62  CB  ASP A   3      24.293   8.101  28.909  0.00  0.00    +0.143 C 
BRANCH  62  63
ATOM     63  CG  ASP A   3      23.973   8.463  27.470  0.00  0.00    +0.367 C 
ATOM     64  OD2 ASP A   3      23.654   9.633  27.230  0.00  0.00    -0.246 OA
ATOM     65  OD1 ASP A   3      24.033   7.591  26.604  0.00  0.00    -0.246 OA
ENDBRANCH  62  63
ENDBRANCH  42  62
ENDBRANCH  38  42
ENDBRANCH  37  40
BRANCH  37  66
ATOM     66  CB  SER A   4      27.415   3.852  26.037  0.00  0.00    +0.166 C 
BRANCH  66  67
ATOM     67  OG  SER A   4      26.281   3.669  25.200  0.00  0.00    -0.380 OA
ATOM     68  H   SER A   4      26.318   4.315  24.451  0.00  0.00    +0.211 HD
ENDBRANCH  66  67
ENDBRANCH  37  66
ENDBRANCH   1  37
TORSDOF 29
REMARK  Name = ../refined-set-2016/4h3g/4h3g_pocket.pdb
REMARK  217 active torsions:
REMARK  status: ('A' for Active; 'I' for Inactive)
REMARK    1  A    between atoms: _1  and  _3
REMARK    2  A    between atoms: _3  and  _4
REMARK    3  A    between atoms: _3  and  _6
REMARK    4  A    between atoms: _6  and  _7
REMARK    5  A    between atoms: _7  and  _8
REMARK    6  A    between atoms: _8  and  _9
REMARK    7  A    between atoms: _9  and  _10
REMARK    8  A    between atoms: _14  and  _16
REMARK    9  A    between atoms: _16  and  _17
REMARK   10  A    between atoms: _16  and  _19
REMARK   11  A    between atoms: _19  and  _20
REMARK   12  A    between atoms: _22  and  _24
REMARK   13  A    between atoms: _24  and  _25
REMARK   14  A    between atoms: _27  and  _29
REMARK   15  A    between atoms: _29  and  _30
REMARK   16  A    between atoms: _29  and  _32
REMARK   17  A    between atoms: _32  and  _33
REMARK   18  A    between atoms: _33  and  _34
REMARK   19  A    between atoms: _39  and  _41
REMARK   20  A    between atoms: _41  and  _42
REMARK   21  A    between atoms: _44  and  _46
REMARK   22  A    between atoms: _46  and  _47
REMARK   23  A    between atoms: _46  and  _49
REMARK   24  A    between atoms: _49  and  _50
REMARK   25  A    between atoms: _55  and  _56
REMARK   26  A    between atoms: _58  and  _60
REMARK   27  A    between atoms: _60  and  _61
REMARK   28  A    between atoms: _60  and  _63
REMARK   29  A    between atoms: _63  and  _64
REMARK   30  A    between atoms: _67  and  _69
REMARK   31  A    between atoms: _69  and  _70
REMARK   32  A    between atoms: _69  and  _72
REMARK   33  A    between atoms: _75  and  _77
REMARK   34  A    between atoms: _77  and  _78
REMARK   35  A    between atoms: _77  and  _80
REMARK   36  A    between atoms: _80  and  _81
REMARK   37  A    between atoms: _84  and  _86
REMARK   38  A    between atoms: _86  and  _87
REMARK   39  A    between atoms: _86  and  _89
REMARK   40  A    between atoms: _89  and  _90
REMARK   41  A    between atoms: _93  and  _95
REMARK   42  A    between atoms: _95  and  _96
REMARK   43  A    between atoms: _98  and  _100
REMARK   44  A    between atoms: _100  and  _101
REMARK   45  A    between atoms: _100  and  _103
REMARK   46  A    between atoms: _103  and  _104
REMARK   47  A    between atoms: _106  and  _108
REMARK   48  A    between atoms: _108  and  _109
REMARK   49  A    between atoms: _108  and  _111
REMARK   50  A    between atoms: _111  and  _112
REMARK   51  A    between atoms: _114  and  _116
REMARK   52  A    between atoms: _116  and  _117
REMARK   53  A    between atoms: _116  and  _119
REMARK   54  A    between atoms: _119  and  _120
REMARK   55  A    between atoms: _125  and  _127
REMARK   56  A    between atoms: _127  and  _128
REMARK   57  A    between atoms: _127  and  _130
REMARK   58  A    between atoms: _130  and  _131
REMARK   59  A    between atoms: _137  and  _139
REMARK   60  A    between atoms: _139  and  _140
REMARK   61  A    between atoms: _143  and  _145
REMARK   62  A    between atoms: _145  and  _146
REMARK   63  A    between atoms: _145  and  _148
REMARK   64  A    between atoms: _151  and  _153
REMARK   65  A    between atoms: _153  and  _154
REMARK   66  A    between atoms: _153  and  _156
REMARK   67  A    between atoms: _156  and  _157
REMARK   68  A    between atoms: _162  and  _163
REMARK   69  A    between atoms: _165  and  _167
REMARK   70  A    between atoms: _167  and  _168
REMARK   71  A    between atoms: _167  and  _170
REMARK   72  A    between atoms: _174  and  _175
REMARK   73  A    between atoms: _180  and  _182
REMARK   74  A    between atoms: _182  and  _183
REMARK   75  A    between atoms: _182  and  _185
REMARK   76  A    between atoms: _185  and  _186
REMARK   77  A    between atoms: _191  and  _192
REMARK   78  A    between atoms: _194  and  _196
REMARK   79  A    between atoms: _196  and  _197
REMARK   80  A    between atoms: _196  and  _199
REMARK   81  A    between atoms: _199  and  _200
REMARK   82  A    between atoms: _203  and  _205
REMARK   83  A    between atoms: _205  and  _206
REMARK   84  A    between atoms: _205  and  _208
REMARK   85  A    between atoms: _208  and  _209
REMARK   86  A    between atoms: _209  and  _210
REMARK   87  A    between atoms: _215  and  _217
REMARK   88  A    between atoms: _217  and  _218
REMARK   89  A    between atoms: _220  and  _222
REMARK   90  A    between atoms: _222  and  _223
REMARK   91  A    between atoms: _222  and  _225
REMARK   92  A    between atoms: _225  and  _226
REMARK   93  A    between atoms: _226  and  _227
REMARK   94  A    between atoms: _227  and  _228
REMARK   95  A    between atoms: _228  and  _229
REMARK   96  A    between atoms: _233  and  _235
REMARK   97  A    between atoms: _235  and  _236
REMARK   98  A    between atoms: _235  and  _238
REMARK   99  A    between atoms: _238  and  _239
REMARK  100  A    between atoms: _249  and  _251
REMARK  101  A    between atoms: _251  and  _252
REMARK  102  A    between atoms: _251  and  _254
REMARK  103  A    between atoms: _254  and  _255
REMARK  104  A    between atoms: _258  and  _260
REMARK  105  A    between atoms: _260  and  _261
REMARK  106  A    between atoms: _260  and  _263
REMARK  107  A    between atoms: _263  and  _264
REMARK  108  A    between atoms: _264  and  _265
REMARK  109  A    between atoms: _265  and  _266
REMARK  110  A    between atoms: _266  and  _267
REMARK  111  A    between atoms: _271  and  _273
REMARK  112  A    between atoms: _273  and  _274
REMARK  113  A    between atoms: _273  and  _276
REMARK  114  A    between atoms: _276  and  _277
REMARK  115  A    between atoms: _283  and  _285
REMARK  116  A    between atoms: _285  and  _286
REMARK  117  A    between atoms: _285  and  _288
REMARK  118  A    between atoms: _288  and  _289
REMARK  119  A    between atoms: _295  and  _297
REMARK  120  A    between atoms: _297  and  _298
REMARK  121  A    between atoms: _297  and  _300
REMARK  122  A    between atoms: _300  and  _301
REMARK  123  A    between atoms: _304  and  _306
REMARK  124  A    between atoms: _306  and  _307
REMARK  125  A    between atoms: _306  and  _309
REMARK  126  A    between atoms: _309  and  _310
REMARK  127  A    between atoms: _312  and  _314
REMARK  128  A    between atoms: _314  and  _315
REMARK  129  A    between atoms: _314  and  _317
REMARK  130  A    between atoms: _317  and  _318
REMARK  131  A    between atoms: _328  and  _330
REMARK  132  A    between atoms: _330  and  _331
REMARK  133  A    between atoms: _333  and  _335
REMARK  134  A    between atoms: _335  and  _336
REMARK  135  A    between atoms: _335  and  _338
REMARK  136  A    between atoms: _338  and  _339
REMARK  137  A    between atoms: _342  and  _344
REMARK  138  A    between atoms: _344  and  _345
REMARK  139  A    between atoms: _344  and  _347
REMARK  140  A    between atoms: _347  and  _348
REMARK  141  A    between atoms: _351  and  _353
REMARK  142  A    between atoms: _353  and  _354
REMARK  143  A    between atoms: _356  and  _358
REMARK  144  A    between atoms: _358  and  _359
REMARK  145  A    between atoms: _358  and  _361
REMARK  146  A    between atoms: _361  and  _362
REMARK  147  A    between atoms: _365  and  _367
REMARK  148  A    between atoms: _367  and  _368
REMARK  149  A    between atoms: _367  and  _370
REMARK  150  A    between atoms: _370  and  _371
REMARK  151  A    between atoms: _374  and  _376
REMARK  152  A    between atoms: _376  and  _377
REMARK  153  A    between atoms: _380  and  _382
REMARK  154  A    between atoms: _382  and  _383
REMARK  155  A    between atoms: _382  and  _385
REMARK  156  A    between atoms: _385  and  _386
REMARK  157  A    between atoms: _386  and  _387
REMARK  158  A    between atoms: _387  and  _388
REMARK  159  A    between atoms: _397  and  _399
REMARK  160  A    between atoms: _399  and  _400
REMARK  161  A    between atoms: _399  and  _402
REMARK  162  A    between atoms: _402  and  _403
REMARK  163  A    between atoms: _406  and  _408
REMARK  164  A    between atoms: _408  and  _409
REMARK  165  A    between atoms: _408  and  _411
REMARK  166  A    between atoms: _411  and  _412
REMARK  167  A    between atoms: _417  and  _418
REMARK  168  A    between atoms: _420  and  _422
REMARK  169  A    between atoms: _422  and  _423
REMARK  170  A    between atoms: _422  and  _425
REMARK  171  A    between atoms: _425  and  _426
REMARK  172  A    between atoms: _429  and  _431
REMARK  173  A    between atoms: _431  and  _432
REMARK  174  A    between atoms: _431  and  _434
REMARK  175  A    between atoms: _437  and  _439
REMARK  176  A    between atoms: _439  and  _440
REMARK  177  A    between atoms: _439  and  _442
REMARK  178  A    between atoms: _442  and  _443
REMARK  179  A    between atoms: _446  and  _448
REMARK  180  A    between atoms: _448  and  _449
REMARK  181  A    between atoms: _448  and  _451
REMARK  182  A    between atoms: _451  and  _452
REMARK  183  A    between atoms: _454  and  _456
REMARK  184  A    between atoms: _456  and  _457
REMARK  185  A    between atoms: _459  and  _461
REMARK  186  A    between atoms: _461  and  _462
REMARK  187  A    between atoms: _461  and  _464
REMARK  188  A    between atoms: _464  and  _465
REMARK  189  A    between atoms: _468  and  _470
REMARK  190  A    between atoms: _470  and  _471
REMARK  191  A    between atoms: _470  and  _473
REMARK  192  A    between atoms: _473  and  _474
REMARK  193  A    between atoms: _477  and  _479
REMARK  194  A    between atoms: _479  and  _480
REMARK  195  A    between atoms: _479  and  _482
REMARK  196  A    between atoms: _482  and  _483
REMARK  197  A    between atoms: _488  and  _490
REMARK  198  A    between atoms: _490  and  _491
REMARK  199  A    between atoms: _490  and  _493
REMARK  200  A    between atoms: _493  and  _494
REMARK  201  A    between atoms: _494  and  _495
REMARK  202  A    between atoms: _495  and  _496
REMARK  203  A    between atoms: _505  and  _507
REMARK  204  A    between atoms: _507  and  _508
REMARK  205  A    between atoms: _507  and  _510
REMARK  206  A    between atoms: _513  and  _515
REMARK  207  A    between atoms: _515  and  _516
REMARK  208  A    between atoms: _518  and  _520
REMARK  209  A    between atoms: _520  and  _521
REMARK  210  A    between atoms: _524  and  _526
REMARK  211  A    between atoms: _526  and  _527
REMARK  212  A    between atoms: _526  and  _529
REMARK  213  A    between atoms: _532  and  _534
REMARK  214  A    between atoms: _534  and  _535
REMARK  215  A    between atoms: _534  and  _537
REMARK  216  A    between atoms: _537  and  _538
REMARK  217  A    between atoms: _538  and  _539
REMARK                            x       y       z     vdW  Elec       q    Type
REMARK                         _______ _______ _______ _____ _____    ______ ____
ROOT
ATOM      1  NE  ARG A   1      25.949  17.220  29.704  0.00  0.00    -0.265 N 
ATOM      2  HE  ARG A   1      26.642  17.974  29.882  0.00  0.00    +0.259 HD
ATOM      3  CZ  ARG A   1      24.689  17.571  29.472  0.00  0.00    +0.342 C 
ATOM      4  NH2 ARG A   1      24.336  18.855  29.467  0.00  0.00    -0.292 N 
ATOM      5 HH21 ARG A   1      25.049  19.591  29.646  0.00  0.00    +0.255 HD
ATOM      6 HH22 ARG A   1      23.348  19.122  29.285  0.00  0.00    +0.255 HD
ATOM      7  NH1 ARG A   1      23.774  16.635  29.261  0.00  0.00    -0.292 N 
ATOM      8 HH11 ARG A   1      24.044  15.631  29.278  0.00  0.00    +0.255 HD
ATOM      9 HH12 ARG A   1      22.786  16.905  29.079  0.00  0.00    +0.255 HD
ENDROOT
BRANCH   1  10
ATOM     10  CD  ARG A   1      26.419  15.833  29.724  0.00  0.00    +0.174 C 
BRANCH  10  11
ATOM     11  CG  ARG A   1      27.404  15.605  30.845  0.00  0.00    +0.045 C 
BRANCH  11  12
ATOM     12  CB  ARG A   1      26.730  15.735  32.214  0.00  0.00    +0.029 C 
BRANCH  12  13
ATOM     13  CA  ARG A   1      27.730  15.607  33.372  0.00  0.00    +0.133 C 
BRANCH  13  14
ATOM     14  N   ARG A   1      28.482  14.359  33.259  0.00  0.00    -0.239 NA
ATOM     15  H   ARG A   1      27.983  13.456  33.124  0.00  0.00    +0.142 HD
ENDBRANCH  13  14
BRANCH  13  16
ATOM     16  C   ARG A   1      27.028  15.651  34.718  0.00  0.00    +0.224 C 
ATOM     17  O   ARG A   1      26.451  14.658  35.156  0.00  0.00    -0.287 OA
ENDBRANCH  13  16
ENDBRANCH  12  13
ENDBRANCH  11  12
ENDBRANCH  10  11
ENDBRANCH   1  10
TORSDOF 6
REMARK  Name = ../refined-set-2016/4h3g/4h3g_pocket.pdb
REMARK  217 active torsions:
REMARK  status: ('A' for Active; 'I' for Inactive)
REMARK    1  A    between atoms: _1  and  _3
REMARK    2  A    between atoms: _3  and  _4
REMARK    3  A    between atoms: _3  and  _6
REMARK    4  A    between atoms: _6  and  _7
REMARK    5  A    between atoms: _7  and  _8
REMARK    6  A    between atoms: _8  and  _9
REMARK    7  A    between atoms: _9  and  _10
REMARK    8  A    between atoms: _14  and  _16
REMARK    9  A    between atoms: _16  and  _17
REMARK   10  A    between atoms: _16  and  _19
REMARK   11  A    between atoms: _19  and  _20
REMARK   12  A    between atoms: _22  and  _24
REMARK   13  A    between atoms: _24  and  _25
REMARK   14  A    between atoms: _27  and  _29
REMARK   15  A    between atoms: _29  and  _30
REMARK   16  A    between atoms: _29  and  _32
REMARK   17  A    between atoms: _32  and  _33
REMARK   18  A    between atoms: _33  and  _34
REMARK   19  A    between atoms: _39  and  _41
REMARK   20  A    between atoms: _41  and  _42
REMARK   21  A    between atoms: _44  and  _46
REMARK   22  A    between atoms: _46  and  _47
REMARK   23  A    between atoms: _46  and  _49
REMARK   24  A    between atoms: _49  and  _50
REMARK   25  A    between atoms: _55  and  _56
REMARK   26  A    between atoms: _58  and  _60
REMARK   27  A    between atoms: _60  and  _61
REMARK   28  A    between atoms: _60  and  _63
REMARK   29  A    between atoms: _63  and  _64
REMARK   30  A    between atoms: _67  and  _69
REMARK   31  A    between atoms: _69  and  _70
REMARK   32  A    between atoms: _69  and  _72
REMARK   33  A    between atoms: _75  and  _77
REMARK   34  A    between atoms: _77  and  _78
REMARK   35  A    between atoms: _77  and  _80
REMARK   36  A    between atoms: _80  and  _81
REMARK   37  A    between atoms: _84  and  _86
REMARK   38  A    between atoms: _86  and  _87
REMARK   39  A    between atoms: _86  and  _89
REMARK   40  A    between atoms: _89  and  _90
REMARK   41  A    between atoms: _93  and  _95
REMARK   42  A    between atoms: _95  and  _96
REMARK   43  A    between atoms: _98  and  _100
REMARK   44  A    between atoms: _100  and  _101
REMARK   45  A    between atoms: _100  and  _103
REMARK   46  A    between atoms: _103  and  _104
REMARK   47  A    between atoms: _106  and  _108
REMARK   48  A    between atoms: _108  and  _109
REMARK   49  A    between atoms: _108  and  _111
REMARK   50  A    between atoms: _111  and  _112
REMARK   51  A    between atoms: _114  and  _116
REMARK   52  A    between atoms: _116  and  _117
REMARK   53  A    between atoms: _116  and  _119
REMARK   54  A    between atoms: _119  and  _120
REMARK   55  A    between atoms: _125  and  _127
REMARK   56  A    between atoms: _127  and  _128
REMARK   57  A    between atoms: _127  and  _130
REMARK   58  A    between atoms: _130  and  _131
REMARK   59  A    between atoms: _137  and  _139
REMARK   60  A    between atoms: _139  and  _140
REMARK   61  A    between atoms: _143  and  _145
REMARK   62  A    between atoms: _145  and  _146
REMARK   63  A    between atoms: _145  and  _148
REMARK   64  A    between atoms: _151  and  _153
REMARK   65  A    between atoms: _153  and  _154
REMARK   66  A    between atoms: _153  and  _156
REMARK   67  A    between atoms: _156  and  _157
REMARK   68  A    between atoms: _162  and  _163
REMARK   69  A    between atoms: _165  and  _167
REMARK   70  A    between atoms: _167  and  _168
REMARK   71  A    between atoms: _167  and  _170
REMARK   72  A    between atoms: _174  and  _175
REMARK   73  A    between atoms: _180  and  _182
REMARK   74  A    between atoms: _182  and  _183
REMARK   75  A    between atoms: _182  and  _185
REMARK   76  A    between atoms: _185  and  _186
REMARK   77  A    between atoms: _191  and  _192
REMARK   78  A    between atoms: _194  and  _196
REMARK   79  A    between atoms: _196  and  _197
REMARK   80  A    between atoms: _196  and  _199
REMARK   81  A    between atoms: _199  and  _200
REMARK   82  A    between atoms: _203  and  _205
REMARK   83  A    between atoms: _205  and  _206
REMARK   84  A    between atoms: _205  and  _208
REMARK   85  A    between atoms: _208  and  _209
REMARK   86  A    between atoms: _209  and  _210
REMARK   87  A    between atoms: _215  and  _217
REMARK   88  A    between atoms: _217  and  _218
REMARK   89  A    between atoms: _220  and  _222
REMARK   90  A    between atoms: _222  and  _223
REMARK   91  A    between atoms: _222  and  _225
REMARK   92  A    between atoms: _225  and  _226
REMARK   93  A    between atoms: _226  and  _227
REMARK   94  A    between atoms: _227  and  _228
REMARK   95  A    between atoms: _228  and  _229
REMARK   96  A    between atoms: _233  and  _235
REMARK   97  A    between atoms: _235  and  _236
REMARK   98  A    between atoms: _235  and  _238
REMARK   99  A    between atoms: _238  and  _239
REMARK  100  A    between atoms: _249  and  _251
REMARK  101  A    between atoms: _251  and  _252
REMARK  102  A    between atoms: _251  and  _254
REMARK  103  A    between atoms: _254  and  _255
REMARK  104  A    between atoms: _258  and  _260
REMARK  105  A    between atoms: _260  and  _261
REMARK  106  A    between atoms: _260  and  _263
REMARK  107  A    between atoms: _263  and  _264
REMARK  108  A    between atoms: _264  and  _265
REMARK  109  A    between atoms: _265  and  _266
REMARK  110  A    between atoms: _266  and  _267
REMARK  111  A    between atoms: _271  and  _273
REMARK  112  A    between atoms: _273  and  _274
REMARK  113  A    between atoms: _273  and  _276
REMARK  114  A    between atoms: _276  and  _277
REMARK  115  A    between atoms: _283  and  _285
REMARK  116  A    between atoms: _285  and  _286
REMARK  117  A    between atoms: _285  and  _288
REMARK  118  A    between atoms: _288  and  _289
REMARK  119  A    between atoms: _295  and  _297
REMARK  120  A    between atoms: _297  and  _298
REMARK  121  A    between atoms: _297  and  _300
REMARK  122  A    between atoms: _300  and  _301
REMARK  123  A    between atoms: _304  and  _306
REMARK  124  A    between atoms: _306  and  _307
REMARK  125  A    between atoms: _306  and  _309
REMARK  126  A    between atoms: _309  and  _310
REMARK  127  A    between atoms: _312  and  _314
REMARK  128  A    between atoms: _314  and  _315
REMARK  129  A    between atoms: _314  and  _317
REMARK  130  A    between atoms: _317  and  _318
REMARK  131  A    between atoms: _328  and  _330
REMARK  132  A    between atoms: _330  and  _331
REMARK  133  A    between atoms: _333  and  _335
REMARK  134  A    between atoms: _335  and  _336
REMARK  135  A    between atoms: _335  and  _338
REMARK  136  A    between atoms: _338  and  _339
REMARK  137  A    between atoms: _342  and  _344
REMARK  138  A    between atoms: _344  and  _345
REMARK  139  A    between atoms: _344  and  _347
REMARK  140  A    between atoms: _347  and  _348
REMARK  141  A    between atoms: _351  and  _353
REMARK  142  A    between atoms: _353  and  _354
REMARK  143  A    between atoms: _356  and  _358
REMARK  144  A    between atoms: _358  and  _359
REMARK  145  A    between atoms: _358  and  _361
REMARK  146  A    between atoms: _361  and  _362
REMARK  147  A    between atoms: _365  and  _367
REMARK  148  A    between atoms: _367  and  _368
REMARK  149  A    between atoms: _367  and  _370
REMARK  150  A    between atoms: _370  and  _371
REMARK  151  A    between atoms: _374  and  _376
REMARK  152  A    between atoms: _376  and  _377
REMARK  153  A    between atoms: _380  and  _382
REMARK  154  A    between atoms: _382  and  _383
REMARK  155  A    between atoms: _382  and  _385
REMARK  156  A    between atoms: _385  and  _386
REMARK  157  A    between atoms: _386  and  _387
REMARK  158  A    between atoms: _387  and  _388
REMARK  159  A    between atoms: _397  and  _399
REMARK  160  A    between atoms: _399  and  _400
REMARK  161  A    between atoms: _399  and  _402
REMARK  162  A    between atoms: _402  and  _403
REMARK  163  A    between atoms: _406  and  _408
REMARK  164  A    between atoms: _408  and  _409
REMARK  165  A    between atoms: _408  and  _411
REMARK  166  A    between atoms: _411  and  _412
REMARK  167  A    between atoms: _417  and  _418
REMARK  168  A    between atoms: _420  and  _422
REMARK  169  A    between atoms: _422  and  _423
REMARK  170  A    between atoms: _422  and  _425
REMARK  171  A    between atoms: _425  and  _426
REMARK  172  A    between atoms: _429  and  _431
REMARK  173  A    between atoms: _431  and  _432
REMARK  174  A    between atoms: _431  and  _434
REMARK  175  A    between atoms: _437  and  _439
REMARK  176  A    between atoms: _439  and  _440
REMARK  177  A    between atoms: _439  and  _442
REMARK  178  A    between atoms: _442  and  _443
REMARK  179  A    between atoms: _446  and  _448
REMARK  180  A    between atoms: _448  and  _449
REMARK  181  A    between atoms: _448  and  _451
REMARK  182  A    between atoms: _451  and  _452
REMARK  183  A    between atoms: _454  and  _456
REMARK  184  A    between atoms: _456  and  _457
REMARK  185  A    between atoms: _459  and  _461
REMARK  186  A    between atoms: _461  and  _462
REMARK  187  A    between atoms: _461  and  _464
REMARK  188  A    between atoms: _464  and  _465
REMARK  189  A    between atoms: _468  and  _470
REMARK  190  A    between atoms: _470  and  _471
REMARK  191  A    between atoms: _470  and  _473
REMARK  192  A    between atoms: _473  and  _474
REMARK  193  A    between atoms: _477  and  _479
REMARK  194  A    between atoms: _479  and  _480
REMARK  195  A    between atoms: _479  and  _482
REMARK  196  A    between atoms: _482  and  _483
REMARK  197  A    between atoms: _488  and  _490
REMARK  198  A    between atoms: _490  and  _491
REMARK  199  A    between atoms: _490  and  _493
REMARK  200  A    between atoms: _493  and  _494
REMARK  201  A    between atoms: _494  and  _495
REMARK  202  A    between atoms: _495  and  _496
REMARK  203  A    between atoms: _505  and  _507
REMARK  204  A    between atoms: _507  and  _508
REMARK  205  A    between atoms: _507  and  _510
REMARK  206  A    between atoms: _513  and  _515
REMARK  207  A    between atoms: _515  and  _516
REMARK  208  A    between atoms: _518  and  _520
REMARK  209  A    between atoms: _520  and  _521
REMARK  210  A    between atoms: _524  and  _526
REMARK  211  A    between atoms: _526  and  _527
REMARK  212  A    between atoms: _526  and  _529
REMARK  213  A    between atoms: _532  and  _534
REMARK  214  A    between atoms: _534  and  _535
REMARK  215  A    between atoms: _534  and  _537
REMARK  216  A    between atoms: _537  and  _538
REMARK  217  A    between atoms: _538  and  _539
REMARK                            x       y       z     vdW  Elec       q    Type
REMARK                         _______ _______ _______ _____ _____    ______ ____
ROOT
ATOM      1  CA  VAL A   1      24.929  11.620  33.146  0.00  0.00    +0.133 C 
ENDROOT
BRANCH   1   2
ATOM      2  CB  VAL A   1      24.837  12.278  31.762  0.00  0.00    +0.023 C 
ATOM      3  CG2 VAL A   1      23.526  13.026  31.623  0.00  0.00    +0.002 C 
ATOM      4  CG1 VAL A   1      24.955  11.188  30.682  0.00  0.00    +0.002 C 
ENDBRANCH   1   2
BRANCH   1   5
ATOM      5  N   VAL A   1      24.757  12.564  34.237  0.00  0.00    -0.239 NA
ATOM      6  H   VAL A   1      25.472  13.301  34.400  0.00  0.00    +0.142 HD
ENDBRANCH   1   5
BRANCH   1   7
ATOM      7  C   VAL A   1      26.302  10.987  33.281  0.00  0.00    +0.224 C 
ATOM      8  O   VAL A   1      27.329  11.664  33.168  0.00  0.00    -0.287 OA
ENDBRANCH   1   7
TORSDOF 3
REMARK  Name = ../refined-set-2016/4h3g/4h3g_pocket.pdb
REMARK  217 active torsions:
REMARK  status: ('A' for Active; 'I' for Inactive)
REMARK    1  A    between atoms: _1  and  _3
REMARK    2  A    between atoms: _3  and  _4
REMARK    3  A    between atoms: _3  and  _6
REMARK    4  A    between atoms: _6  and  _7
REMARK    5  A    between atoms: _7  and  _8
REMARK    6  A    between atoms: _8  and  _9
REMARK    7  A    between atoms: _9  and  _10
REMARK    8  A    between atoms: _14  and  _16
REMARK    9  A    between atoms: _16  and  _17
REMARK   10  A    between atoms: _16  and  _19
REMARK   11  A    between atoms: _19  and  _20
REMARK   12  A    between atoms: _22  and  _24
REMARK   13  A    between atoms: _24  and  _25
REMARK   14  A    between atoms: _27  and  _29
REMARK   15  A    between atoms: _29  and  _30
REMARK   16  A    between atoms: _29  and  _32
REMARK   17  A    between atoms: _32  and  _33
REMARK   18  A    between atoms: _33  and  _34
REMARK   19  A    between atoms: _39  and  _41
REMARK   20  A    between atoms: _41  and  _42
REMARK   21  A    between atoms: _44  and  _46
REMARK   22  A    between atoms: _46  and  _47
REMARK   23  A    between atoms: _46  and  _49
REMARK   24  A    between atoms: _49  and  _50
REMARK   25  A    between atoms: _55  and  _56
REMARK   26  A    between atoms: _58  and  _60
REMARK   27  A    between atoms: _60  and  _61
REMARK   28  A    between atoms: _60  and  _63
REMARK   29  A    between atoms: _63  and  _64
REMARK   30  A    between atoms: _67  and  _69
REMARK   31  A    between atoms: _69  and  _70
REMARK   32  A    between atoms: _69  and  _72
REMARK   33  A    between atoms: _75  and  _77
REMARK   34  A    between atoms: _77  and  _78
REMARK   35  A    between atoms: _77  and  _80
REMARK   36  A    between atoms: _80  and  _81
REMARK   37  A    between atoms: _84  and  _86
REMARK   38  A    between atoms: _86  and  _87
REMARK   39  A    between atoms: _86  and  _89
REMARK   40  A    between atoms: _89  and  _90
REMARK   41  A    between atoms: _93  and  _95
REMARK   42  A    between atoms: _95  and  _96
REMARK   43  A    between atoms: _98  and  _100
REMARK   44  A    between atoms: _100  and  _101
REMARK   45  A    between atoms: _100  and  _103
REMARK   46  A    between atoms: _103  and  _104
REMARK   47  A    between atoms: _106  and  _108
REMARK   48  A    between atoms: _108  and  _109
REMARK   49  A    between atoms: _108  and  _111
REMARK   50  A    between atoms: _111  and  _112
REMARK   51  A    between atoms: _114  and  _116
REMARK   52  A    between atoms: _116  and  _117
REMARK   53  A    between atoms: _116  and  _119
REMARK   54  A    between atoms: _119  and  _120
REMARK   55  A    between atoms: _125  and  _127
REMARK   56  A    between atoms: _127  and  _128
REMARK   57  A    between atoms: _127  and  _130
REMARK   58  A    between atoms: _130  and  _131
REMARK   59  A    between atoms: _137  and  _139
REMARK   60  A    between atoms: _139  and  _140
REMARK   61  A    between atoms: _143  and  _145
REMARK   62  A    between atoms: _145  and  _146
REMARK   63  A    between atoms: _145  and  _148
REMARK   64  A    between atoms: _151  and  _153
REMARK   65  A    between atoms: _153  and  _154
REMARK   66  A    between atoms: _153  and  _156
REMARK   67  A    between atoms: _156  and  _157
REMARK   68  A    between atoms: _162  and  _163
REMARK   69  A    between atoms: _165  and  _167
REMARK   70  A    between atoms: _167  and  _168
REMARK   71  A    between atoms: _167  and  _170
REMARK   72  A    between atoms: _174  and  _175
REMARK   73  A    between atoms: _180  and  _182
REMARK   74  A    between atoms: _182  and  _183
REMARK   75  A    between atoms: _182  and  _185
REMARK   76  A    between atoms: _185  and  _186
REMARK   77  A    between atoms: _191  and  _192
REMARK   78  A    between atoms: _194  and  _196
REMARK   79  A    between atoms: _196  and  _197
REMARK   80  A    between atoms: _196  and  _199
REMARK   81  A    between atoms: _199  and  _200
REMARK   82  A    between atoms: _203  and  _205
REMARK   83  A    between atoms: _205  and  _206
REMARK   84  A    between atoms: _205  and  _208
REMARK   85  A    between atoms: _208  and  _209
REMARK   86  A    between atoms: _209  and  _210
REMARK   87  A    between atoms: _215  and  _217
REMARK   88  A    between atoms: _217  and  _218
REMARK   89  A    between atoms: _220  and  _222
REMARK   90  A    between atoms: _222  and  _223
REMARK   91  A    between atoms: _222  and  _225
REMARK   92  A    between atoms: _225  and  _226
REMARK   93  A    between atoms: _226  and  _227
REMARK   94  A    between atoms: _227  and  _228
REMARK   95  A    between atoms: _228  and  _229
REMARK   96  A    between atoms: _233  and  _235
REMARK   97  A    between atoms: _235  and  _236
REMARK   98  A    between atoms: _235  and  _238
REMARK   99  A    between atoms: _238  and  _239
REMARK  100  A    between atoms: _249  and  _251
REMARK  101  A    between atoms: _251  and  _252
REMARK  102  A    between atoms: _251  and  _254
REMARK  103  A    between atoms: _254  and  _255
REMARK  104  A    between atoms: _258  and  _260
REMARK  105  A    between atoms: _260  and  _261
REMARK  106  A    between atoms: _260  and  _263
REMARK  107  A    between atoms: _263  and  _264
REMARK  108  A    between atoms: _264  and  _265
REMARK  109  A    between atoms: _265  and  _266
REMARK  110  A    between atoms: _266  and  _267
REMARK  111  A    between atoms: _271  and  _273
REMARK  112  A    between atoms: _273  and  _274
REMARK  113  A    between atoms: _273  and  _276
REMARK  114  A    between atoms: _276  and  _277
REMARK  115  A    between atoms: _283  and  _285
REMARK  116  A    between atoms: _285  and  _286
REMARK  117  A    between atoms: _285  and  _288
REMARK  118  A    between atoms: _288  and  _289
REMARK  119  A    between atoms: _295  and  _297
REMARK  120  A    between atoms: _297  and  _298
REMARK  121  A    between atoms: _297  and  _300
REMARK  122  A    between atoms: _300  and  _301
REMARK  123  A    between atoms: _304  and  _306
REMARK  124  A    between atoms: _306  and  _307
REMARK  125  A    between atoms: _306  and  _309
REMARK  126  A    between atoms: _309  and  _310
REMARK  127  A    between atoms: _312  and  _314
REMARK  128  A    between atoms: _314  and  _315
REMARK  129  A    between atoms: _314  and  _317
REMARK  130  A    between atoms: _317  and  _318
REMARK  131  A    between atoms: _328  and  _330
REMARK  132  A    between atoms: _330  and  _331
REMARK  133  A    between atoms: _333  and  _335
REMARK  134  A    between atoms: _335  and  _336
REMARK  135  A    between atoms: _335  and  _338
REMARK  136  A    between atoms: _338  and  _339
REMARK  137  A    between atoms: _342  and  _344
REMARK  138  A    between atoms: _344  and  _345
REMARK  139  A    between atoms: _344  and  _347
REMARK  140  A    between atoms: _347  and  _348
REMARK  141  A    between atoms: _351  and  _353
REMARK  142  A    between atoms: _353  and  _354
REMARK  143  A    between atoms: _356  and  _358
REMARK  144  A    between atoms: _358  and  _359
REMARK  145  A    between atoms: _358  and  _361
REMARK  146  A    between atoms: _361  and  _362
REMARK  147  A    between atoms: _365  and  _367
REMARK  148  A    between atoms: _367  and  _368
REMARK  149  A    between atoms: _367  and  _370
REMARK  150  A    between atoms: _370  and  _371
REMARK  151  A    between atoms: _374  and  _376
REMARK  152  A    between atoms: _376  and  _377
REMARK  153  A    between atoms: _380  and  _382
REMARK  154  A    between atoms: _382  and  _383
REMARK  155  A    between atoms: _382  and  _385
REMARK  156  A    between atoms: _385  and  _386
REMARK  157  A    between atoms: _386  and  _387
REMARK  158  A    between atoms: _387  and  _388
REMARK  159  A    between atoms: _397  and  _399
REMARK  160  A    between atoms: _399  and  _400
REMARK  161  A    between atoms: _399  and  _402
REMARK  162  A    between atoms: _402  and  _403
REMARK  163  A    between atoms: _406  and  _408
REMARK  164  A    between atoms: _408  and  _409
REMARK  165  A    between atoms: _408  and  _411
REMARK  166  A    between atoms: _411  and  _412
REMARK  167  A    between atoms: _417  and  _418
REMARK  168  A    between atoms: _420  and  _422
REMARK  169  A    between atoms: _422  and  _423
REMARK  170  A    between atoms: _422  and  _425
REMARK  171  A    between atoms: _425  and  _426
REMARK  172  A    between atoms: _429  and  _431
REMARK  173  A    between atoms: _431  and  _432
REMARK  174  A    between atoms: _431  and  _434
REMARK  175  A    between atoms: _437  and  _439
REMARK  176  A    between atoms: _439  and  _440
REMARK  177  A    between atoms: _439  and  _442
REMARK  178  A    between atoms: _442  and  _443
REMARK  179  A    between atoms: _446  and  _448
REMARK  180  A    between atoms: _448  and  _449
REMARK  181  A    between atoms: _448  and  _451
REMARK  182  A    between atoms: _451  and  _452
REMARK  183  A    between atoms: _454  and  _456
REMARK  184  A    between atoms: _456  and  _457
REMARK  185  A    between atoms: _459  and  _461
REMARK  186  A    between atoms: _461  and  _462
REMARK  187  A    between atoms: _461  and  _464
REMARK  188  A    between atoms: _464  and  _465
REMARK  189  A    between atoms: _468  and  _470
REMARK  190  A    between atoms: _470  and  _471
REMARK  191  A    between atoms: _470  and  _473
REMARK  192  A    between atoms: _473  and  _474
REMARK  193  A    between atoms: _477  and  _479
REMARK  194  A    between atoms: _479  and  _480
REMARK  195  A    between atoms: _479  and  _482
REMARK  196  A    between atoms: _482  and  _483
REMARK  197  A    between atoms: _488  and  _490
REMARK  198  A    between atoms: _490  and  _491
REMARK  199  A    between atoms: _490  and  _493
REMARK  200  A    between atoms: _493  and  _494
REMARK  201  A    between atoms: _494  and  _495
REMARK  202  A    between atoms: _495  and  _496
REMARK  203  A    between atoms: _505  and  _507
REMARK  204  A    between atoms: _507  and  _508
REMARK  205  A    between atoms: _507  and  _510
REMARK  206  A    between atoms: _513  and  _515
REMARK  207  A    between atoms: _515  and  _516
REMARK  208  A    between atoms: _518  and  _520
REMARK  209  A    between atoms: _520  and  _521
REMARK  210  A    between atoms: _524  and  _526
REMARK  211  A    between atoms: _526  and  _527
REMARK  212  A    between atoms: _526  and  _529
REMARK  213  A    between atoms: _532  and  _534
REMARK  214  A    between atoms: _534  and  _535
REMARK  215  A    between atoms: _534  and  _537
REMARK  216  A    between atoms: _537  and  _538
REMARK  217  A    between atoms: _538  and  _539
REMARK                            x       y       z     vdW  Elec       q    Type
REMARK                         _______ _______ _______ _____ _____    ______ ____
ROOT
ATOM      1  C   ALA A   2      33.404   7.984  29.817  0.00  0.00    +0.241 C 
ATOM      2  N   VAL A   3      33.358   9.170  30.423  0.00  0.00    -0.298 N 
ATOM      3  H   VAL A   3      32.628   9.858  30.149  0.00  0.00    +0.150 HD
ATOM      4  O   ALA A   2      34.260   7.144  30.082  0.00  0.00    -0.273 OA
ENDROOT
BRANCH   1   5
ATOM      5  CA  ALA A   2      32.339   7.686  28.759  0.00  0.00    +0.149 C 
ATOM      6  CB  ALA A   2      32.872   8.007  27.351  0.00  0.00    +0.031 C 
BRANCH   5   9
ATOM      7  C   GLY A   1      30.422   8.310  30.132  0.00  0.00    +0.240 C 
ATOM      8  O   GLY A   1      30.840   7.677  31.099  0.00  0.00    -0.274 OA
ATOM      9  N   ALA A   2      31.072   8.380  28.975  0.00  0.00    -0.297 N 
ATOM     10  H   ALA A   2      30.667   8.945  28.201  0.00  0.00    +0.150 HD
BRANCH   7  11
ATOM     11  CA  GLY A   1      29.110   9.066  30.212  0.00  0.00    +0.169 C 
BRANCH  11  12
ATOM     12  N   GLY A   1      28.697   9.353  31.570  0.00  0.00    -0.236 NA
ATOM     13  H   GLY A   1      29.000  10.246  32.010  0.00  0.00    +0.142 HD
ENDBRANCH  11  12
ENDBRANCH   7  11
ENDBRANCH   5   9
ENDBRANCH   1   5
BRANCH   2  14
ATOM     14  CA  VAL A   3      34.326   9.519  31.473  0.00  0.00    +0.137 C 
BRANCH  14  15
ATOM     15  CB  VAL A   3      34.079  10.944  32.043  0.00  0.00    +0.026 C 
ATOM     16  CG2 VAL A   3      34.809  11.115  33.384  0.00  0.00    +0.002 C 
ATOM     17  CG1 VAL A   3      34.571  11.983  31.062  0.00  0.00    +0.002 C 
ENDBRANCH  14  15
BRANCH  14  18
ATOM     18  C   VAL A   3      34.229   8.521  32.619  0.00  0.00    +0.227 C 
ATOM     19  O   VAL A   3      35.232   8.170  33.252  0.00  0.00    -0.286 OA
ENDBRANCH  14  18
ENDBRANCH   2  14
TORSDOF 7
REMARK  Name = ../refined-set-2016/4h3g/4h3g_pocket.pdb
REMARK  217 active torsions:
REMARK  status: ('A' for Active; 'I' for Inactive)
REMARK    1  A    between atoms: _1  and  _3
REMARK    2  A    between atoms: _3  and  _4
REMARK    3  A    between atoms: _3  and  _6
REMARK    4  A    between atoms: _6  and  _7
REMARK    5  A    between atoms: _7  and  _8
REMARK    6  A    between atoms: _8  and  _9
REMARK    7  A    between atoms: _9  and  _10
REMARK    8  A    between atoms: _14  and  _16
REMARK    9  A    between atoms: _16  and  _17
REMARK   10  A    between atoms: _16  and  _19
REMARK   11  A    between atoms: _19  and  _20
REMARK   12  A    between atoms: _22  and  _24
REMARK   13  A    between atoms: _24  and  _25
REMARK   14  A    between atoms: _27  and  _29
REMARK   15  A    between atoms: _29  and  _30
REMARK   16  A    between atoms: _29  and  _32
REMARK   17  A    between atoms: _32  and  _33
REMARK   18  A    between atoms: _33  and  _34
REMARK   19  A    between atoms: _39  and  _41
REMARK   20  A    between atoms: _41  and  _42
REMARK   21  A    between atoms: _44  and  _46
REMARK   22  A    between atoms: _46  and  _47
REMARK   23  A    between atoms: _46  and  _49
REMARK   24  A    between atoms: _49  and  _50
REMARK   25  A    between atoms: _55  and  _56
REMARK   26  A    between atoms: _58  and  _60
REMARK   27  A    between atoms: _60  and  _61
REMARK   28  A    between atoms: _60  and  _63
REMARK   29  A    between atoms: _63  and  _64
REMARK   30  A    between atoms: _67  and  _69
REMARK   31  A    between atoms: _69  and  _70
REMARK   32  A    between atoms: _69  and  _72
REMARK   33  A    between atoms: _75  and  _77
REMARK   34  A    between atoms: _77  and  _78
REMARK   35  A    between atoms: _77  and  _80
REMARK   36  A    between atoms: _80  and  _81
REMARK   37  A    between atoms: _84  and  _86
REMARK   38  A    between atoms: _86  and  _87
REMARK   39  A    between atoms: _86  and  _89
REMARK   40  A    between atoms: _89  and  _90
REMARK   41  A    between atoms: _93  and  _95
REMARK   42  A    between atoms: _95  and  _96
REMARK   43  A    between atoms: _98  and  _100
REMARK   44  A    between atoms: _100  and  _101
REMARK   45  A    between atoms: _100  and  _103
REMARK   46  A    between atoms: _103  and  _104
REMARK   47  A    between atoms: _106  and  _108
REMARK   48  A    between atoms: _108  and  _109
REMARK   49  A    between atoms: _108  and  _111
REMARK   50  A    between atoms: _111  and  _112
REMARK   51  A    between atoms: _114  and  _116
REMARK   52  A    between atoms: _116  and  _117
REMARK   53  A    between atoms: _116  and  _119
REMARK   54  A    between atoms: _119  and  _120
REMARK   55  A    between atoms: _125  and  _127
REMARK   56  A    between atoms: _127  and  _128
REMARK   57  A    between atoms: _127  and  _130
REMARK   58  A    between atoms: _130  and  _131
REMARK   59  A    between atoms: _137  and  _139
REMARK   60  A    between atoms: _139  and  _140
REMARK   61  A    between atoms: _143  and  _145
REMARK   62  A    between atoms: _145  and  _146
REMARK   63  A    between atoms: _145  and  _148
REMARK   64  A    between atoms: _151  and  _153
REMARK   65  A    between atoms: _153  and  _154
REMARK   66  A    between atoms: _153  and  _156
REMARK   67  A    between atoms: _156  and  _157
REMARK   68  A    between atoms: _162  and  _163
REMARK   69  A    between atoms: _165  and  _167
REMARK   70  A    between atoms: _167  and  _168
REMARK   71  A    between atoms: _167  and  _170
REMARK   72  A    between atoms: _174  and  _175
REMARK   73  A    between atoms: _180  and  _182
REMARK   74  A    between atoms: _182  and  _183
REMARK   75  A    between atoms: _182  and  _185
REMARK   76  A    between atoms: _185  and  _186
REMARK   77  A    between atoms: _191  and  _192
REMARK   78  A    between atoms: _194  and  _196
REMARK   79  A    between atoms: _196  and  _197
REMARK   80  A    between atoms: _196  and  _199
REMARK   81  A    between atoms: _199  and  _200
REMARK   82  A    between atoms: _203  and  _205
REMARK   83  A    between atoms: _205  and  _206
REMARK   84  A    between atoms: _205  and  _208
REMARK   85  A    between atoms: _208  and  _209
REMARK   86  A    between atoms: _209  and  _210
REMARK   87  A    between atoms: _215  and  _217
REMARK   88  A    between atoms: _217  and  _218
REMARK   89  A    between atoms: _220  and  _222
REMARK   90  A    between atoms: _222  and  _223
REMARK   91  A    between atoms: _222  and  _225
REMARK   92  A    between atoms: _225  and  _226
REMARK   93  A    between atoms: _226  and  _227
REMARK   94  A    between atoms: _227  and  _228
REMARK   95  A    between atoms: _228  and  _229
REMARK   96  A    between atoms: _233  and  _235
REMARK   97  A    between atoms: _235  and  _236
REMARK   98  A    between atoms: _235  and  _238
REMARK   99  A    between atoms: _238  and  _239
REMARK  100  A    between atoms: _249  and  _251
REMARK  101  A    between atoms: _251  and  _252
REMARK  102  A    between atoms: _251  and  _254
REMARK  103  A    between atoms: _254  and  _255
REMARK  104  A    between atoms: _258  and  _260
REMARK  105  A    between atoms: _260  and  _261
REMARK  106  A    between atoms: _260  and  _263
REMARK  107  A    between atoms: _263  and  _264
REMARK  108  A    between atoms: _264  and  _265
REMARK  109  A    between atoms: _265  and  _266
REMARK  110  A    between atoms: _266  and  _267
REMARK  111  A    between atoms: _271  and  _273
REMARK  112  A    between atoms: _273  and  _274
REMARK  113  A    between atoms: _273  and  _276
REMARK  114  A    between atoms: _276  and  _277
REMARK  115  A    between atoms: _283  and  _285
REMARK  116  A    between atoms: _285  and  _286
REMARK  117  A    between atoms: _285  and  _288
REMARK  118  A    between atoms: _288  and  _289
REMARK  119  A    between atoms: _295  and  _297
REMARK  120  A    between atoms: _297  and  _298
REMARK  121  A    between atoms: _297  and  _300
REMARK  122  A    between atoms: _300  and  _301
REMARK  123  A    between atoms: _304  and  _306
REMARK  124  A    between atoms: _306  and  _307
REMARK  125  A    between atoms: _306  and  _309
REMARK  126  A    between atoms: _309  and  _310
REMARK  127  A    between atoms: _312  and  _314
REMARK  128  A    between atoms: _314  and  _315
REMARK  129  A    between atoms: _314  and  _317
REMARK  130  A    between atoms: _317  and  _318
REMARK  131  A    between atoms: _328  and  _330
REMARK  132  A    between atoms: _330  and  _331
REMARK  133  A    between atoms: _333  and  _335
REMARK  134  A    between atoms: _335  and  _336
REMARK  135  A    between atoms: _335  and  _338
REMARK  136  A    between atoms: _338  and  _339
REMARK  137  A    between atoms: _342  and  _344
REMARK  138  A    between atoms: _344  and  _345
REMARK  139  A    between atoms: _344  and  _347
REMARK  140  A    between atoms: _347  and  _348
REMARK  141  A    between atoms: _351  and  _353
REMARK  142  A    between atoms: _353  and  _354
REMARK  143  A    between atoms: _356  and  _358
REMARK  144  A    between atoms: _358  and  _359
REMARK  145  A    between atoms: _358  and  _361
REMARK  146  A    between atoms: _361  and  _362
REMARK  147  A    between atoms: _365  and  _367
REMARK  148  A    between atoms: _367  and  _368
REMARK  149  A    between atoms: _367  and  _370
REMARK  150  A    between atoms: _370  and  _371
REMARK  151  A    between atoms: _374  and  _376
REMARK  152  A    between atoms: _376  and  _377
REMARK  153  A    between atoms: _380  and  _382
REMARK  154  A    between atoms: _382  and  _383
REMARK  155  A    between atoms: _382  and  _385
REMARK  156  A    between atoms: _385  and  _386
REMARK  157  A    between atoms: _386  and  _387
REMARK  158  A    between atoms: _387  and  _388
REMARK  159  A    between atoms: _397  and  _399
REMARK  160  A    between atoms: _399  and  _400
REMARK  161  A    between atoms: _399  and  _402
REMARK  162  A    between atoms: _402  and  _403
REMARK  163  A    between atoms: _406  and  _408
REMARK  164  A    between atoms: _408  and  _409
REMARK  165  A    between atoms: _408  and  _411
REMARK  166  A    between atoms: _411  and  _412
REMARK  167  A    between atoms: _417  and  _418
REMARK  168  A    between atoms: _420  and  _422
REMARK  169  A    between atoms: _422  and  _423
REMARK  170  A    between atoms: _422  and  _425
REMARK  171  A    between atoms: _425  and  _426
REMARK  172  A    between atoms: _429  and  _431
REMARK  173  A    between atoms: _431  and  _432
REMARK  174  A    between atoms: _431  and  _434
REMARK  175  A    between atoms: _437  and  _439
REMARK  176  A    between atoms: _439  and  _440
REMARK  177  A    between atoms: _439  and  _442
REMARK  178  A    between atoms: _442  and  _443
REMARK  179  A    between atoms: _446  and  _448
REMARK  180  A    between atoms: _448  and  _449
REMARK  181  A    between atoms: _448  and  _451
REMARK  182  A    between atoms: _451  and  _452
REMARK  183  A    between atoms: _454  and  _456
REMARK  184  A    between atoms: _456  and  _457
REMARK  185  A    between atoms: _459  and  _461
REMARK  186  A    between atoms: _461  and  _462
REMARK  187  A    between atoms: _461  and  _464
REMARK  188  A    between atoms: _464  and  _465
REMARK  189  A    between atoms: _468  and  _470
REMARK  190  A    between atoms: _470  and  _471
REMARK  191  A    between atoms: _470  and  _473
REMARK  192  A    between atoms: _473  and  _474
REMARK  193  A    between atoms: _477  and  _479
REMARK  194  A    between atoms: _479  and  _480
REMARK  195  A    between atoms: _479  and  _482
REMARK  196  A    between atoms: _482  and  _483
REMARK  197  A    between atoms: _488  and  _490
REMARK  198  A    between atoms: _490  and  _491
REMARK  199  A    between atoms: _490  and  _493
REMARK  200  A    between atoms: _493  and  _494
REMARK  201  A    between atoms: _494  and  _495
REMARK  202  A    between atoms: _495  and  _496
REMARK  203  A    between atoms: _505  and  _507
REMARK  204  A    between atoms: _507  and  _508
REMARK  205  A    between atoms: _507  and  _510
REMARK  206  A    between atoms: _513  and  _515
REMARK  207  A    between atoms: _515  and  _516
REMARK  208  A    between atoms: _518  and  _520
REMARK  209  A    between atoms: _520  and  _521
REMARK  210  A    between atoms: _524  and  _526
REMARK  211  A    between atoms: _526  and  _527
REMARK  212  A    between atoms: _526  and  _529
REMARK  213  A    between atoms: _532  and  _534
REMARK  214  A    between atoms: _534  and  _535
REMARK  215  A    between atoms: _534  and  _537
REMARK  216  A    between atoms: _537  and  _538
REMARK  217  A    between atoms: _538  and  _539
REMARK                            x       y       z     vdW  Elec       q    Type
REMARK                         _______ _______ _______ _____ _____    ______ ____
ROOT
ATOM      1  CA  GLU A   1      36.073   4.071  30.446  0.00  0.00    +0.134 C 
ENDROOT
BRANCH   1   2
ATOM      2  N   GLU A   1      34.745   4.524  30.847  0.00  0.00    -0.239 NA
ATOM      3  H   GLU A   1      34.519   5.539  30.861  0.00  0.00    +0.142 HD
ENDBRANCH   1   2
BRANCH   1   4
ATOM      4  C   GLU A   1      36.878   3.536  31.642  0.00  0.00    +0.224 C 
ATOM      5  O   GLU A   1      37.905   2.877  31.476  0.00  0.00    -0.287 OA
ENDBRANCH   1   4
BRANCH   1   6
ATOM      6  CB  GLU A   1      36.829   5.207  29.747  0.00  0.00    +0.037 C 
BRANCH   6   7
ATOM      7  CG  GLU A   1      36.307   5.455  28.327  0.00  0.00    +0.116 C 
BRANCH   7   8
ATOM      8  CD  GLU A   1      36.997   6.597  27.613  0.00  0.00    +0.365 C 
ATOM      9  OE2 GLU A   1      37.842   7.256  28.211  0.00  0.00    -0.246 OA
ATOM     10  OE1 GLU A   1      36.681   6.815  26.445  0.00  0.00    -0.246 OA
ENDBRANCH   7   8
ENDBRANCH   6   7
ENDBRANCH   1   6
TORSDOF 5
REMARK  Name = ../refined-set-2016/4h3g/4h3g_pocket.pdb
REMARK  217 active torsions:
REMARK  status: ('A' for Active; 'I' for Inactive)
REMARK    1  A    between atoms: _1  and  _3
REMARK    2  A    between atoms: _3  and  _4
REMARK    3  A    between atoms: _3  and  _6
REMARK    4  A    between atoms: _6  and  _7
REMARK    5  A    between atoms: _7  and  _8
REMARK    6  A    between atoms: _8  and  _9
REMARK    7  A    between atoms: _9  and  _10
REMARK    8  A    between atoms: _14  and  _16
REMARK    9  A    between atoms: _16  and  _17
REMARK   10  A    between atoms: _16  and  _19
REMARK   11  A    between atoms: _19  and  _20
REMARK   12  A    between atoms: _22  and  _24
REMARK   13  A    between atoms: _24  and  _25
REMARK   14  A    between atoms: _27  and  _29
REMARK   15  A    between atoms: _29  and  _30
REMARK   16  A    between atoms: _29  and  _32
REMARK   17  A    between atoms: _32  and  _33
REMARK   18  A    between atoms: _33  and  _34
REMARK   19  A    between atoms: _39  and  _41
REMARK   20  A    between atoms: _41  and  _42
REMARK   21  A    between atoms: _44  and  _46
REMARK   22  A    between atoms: _46  and  _47
REMARK   23  A    between atoms: _46  and  _49
REMARK   24  A    between atoms: _49  and  _50
REMARK   25  A    between atoms: _55  and  _56
REMARK   26  A    between atoms: _58  and  _60
REMARK   27  A    between atoms: _60  and  _61
REMARK   28  A    between atoms: _60  and  _63
REMARK   29  A    between atoms: _63  and  _64
REMARK   30  A    between atoms: _67  and  _69
REMARK   31  A    between atoms: _69  and  _70
REMARK   32  A    between atoms: _69  and  _72
REMARK   33  A    between atoms: _75  and  _77
REMARK   34  A    between atoms: _77  and  _78
REMARK   35  A    between atoms: _77  and  _80
REMARK   36  A    between atoms: _80  and  _81
REMARK   37  A    between atoms: _84  and  _86
REMARK   38  A    between atoms: _86  and  _87
REMARK   39  A    between atoms: _86  and  _89
REMARK   40  A    between atoms: _89  and  _90
REMARK   41  A    between atoms: _93  and  _95
REMARK   42  A    between atoms: _95  and  _96
REMARK   43  A    between atoms: _98  and  _100
REMARK   44  A    between atoms: _100  and  _101
REMARK   45  A    between atoms: _100  and  _103
REMARK   46  A    between atoms: _103  and  _104
REMARK   47  A    between atoms: _106  and  _108
REMARK   48  A    between atoms: _108  and  _109
REMARK   49  A    between atoms: _108  and  _111
REMARK   50  A    between atoms: _111  and  _112
REMARK   51  A    between atoms: _114  and  _116
REMARK   52  A    between atoms: _116  and  _117
REMARK   53  A    between atoms: _116  and  _119
REMARK   54  A    between atoms: _119  and  _120
REMARK   55  A    between atoms: _125  and  _127
REMARK   56  A    between atoms: _127  and  _128
REMARK   57  A    between atoms: _127  and  _130
REMARK   58  A    between atoms: _130  and  _131
REMARK   59  A    between atoms: _137  and  _139
REMARK   60  A    between atoms: _139  and  _140
REMARK   61  A    between atoms: _143  and  _145
REMARK   62  A    between atoms: _145  and  _146
REMARK   63  A    between atoms: _145  and  _148
REMARK   64  A    between atoms: _151  and  _153
REMARK   65  A    between atoms: _153  and  _154
REMARK   66  A    between atoms: _153  and  _156
REMARK   67  A    between atoms: _156  and  _157
REMARK   68  A    between atoms: _162  and  _163
REMARK   69  A    between atoms: _165  and  _167
REMARK   70  A    between atoms: _167  and  _168
REMARK   71  A    between atoms: _167  and  _170
REMARK   72  A    between atoms: _174  and  _175
REMARK   73  A    between atoms: _180  and  _182
REMARK   74  A    between atoms: _182  and  _183
REMARK   75  A    between atoms: _182  and  _185
REMARK   76  A    between atoms: _185  and  _186
REMARK   77  A    between atoms: _191  and  _192
REMARK   78  A    between atoms: _194  and  _196
REMARK   79  A    between atoms: _196  and  _197
REMARK   80  A    between atoms: _196  and  _199
REMARK   81  A    between atoms: _199  and  _200
REMARK   82  A    between atoms: _203  and  _205
REMARK   83  A    between atoms: _205  and  _206
REMARK   84  A    between atoms: _205  and  _208
REMARK   85  A    between atoms: _208  and  _209
REMARK   86  A    between atoms: _209  and  _210
REMARK   87  A    between atoms: _215  and  _217
REMARK   88  A    between atoms: _217  and  _218
REMARK   89  A    between atoms: _220  and  _222
REMARK   90  A    between atoms: _222  and  _223
REMARK   91  A    between atoms: _222  and  _225
REMARK   92  A    between atoms: _225  and  _226
REMARK   93  A    between atoms: _226  and  _227
REMARK   94  A    between atoms: _227  and  _228
REMARK   95  A    between atoms: _228  and  _229
REMARK   96  A    between atoms: _233  and  _235
REMARK   97  A    between atoms: _235  and  _236
REMARK   98  A    between atoms: _235  and  _238
REMARK   99  A    between atoms: _238  and  _239
REMARK  100  A    between atoms: _249  and  _251
REMARK  101  A    between atoms: _251  and  _252
REMARK  102  A    between atoms: _251  and  _254
REMARK  103  A    between atoms: _254  and  _255
REMARK  104  A    between atoms: _258  and  _260
REMARK  105  A    between atoms: _260  and  _261
REMARK  106  A    between atoms: _260  and  _263
REMARK  107  A    between atoms: _263  and  _264
REMARK  108  A    between atoms: _264  and  _265
REMARK  109  A    between atoms: _265  and  _266
REMARK  110  A    between atoms: _266  and  _267
REMARK  111  A    between atoms: _271  and  _273
REMARK  112  A    between atoms: _273  and  _274
REMARK  113  A    between atoms: _273  and  _276
REMARK  114  A    between atoms: _276  and  _277
REMARK  115  A    between atoms: _283  and  _285
REMARK  116  A    between atoms: _285  and  _286
REMARK  117  A    between atoms: _285  and  _288
REMARK  118  A    between atoms: _288  and  _289
REMARK  119  A    between atoms: _295  and  _297
REMARK  120  A    between atoms: _297  and  _298
REMARK  121  A    between atoms: _297  and  _300
REMARK  122  A    between atoms: _300  and  _301
REMARK  123  A    between atoms: _304  and  _306
REMARK  124  A    between atoms: _306  and  _307
REMARK  125  A    between atoms: _306  and  _309
REMARK  126  A    between atoms: _309  and  _310
REMARK  127  A    between atoms: _312  and  _314
REMARK  128  A    between atoms: _314  and  _315
REMARK  129  A    between atoms: _314  and  _317
REMARK  130  A    between atoms: _317  and  _318
REMARK  131  A    between atoms: _328  and  _330
REMARK  132  A    between atoms: _330  and  _331
REMARK  133  A    between atoms: _333  and  _335
REMARK  134  A    between atoms: _335  and  _336
REMARK  135  A    between atoms: _335  and  _338
REMARK  136  A    between atoms: _338  and  _339
REMARK  137  A    between atoms: _342  and  _344
REMARK  138  A    between atoms: _344  and  _345
REMARK  139  A    between atoms: _344  and  _347
REMARK  140  A    between atoms: _347  and  _348
REMARK  141  A    between atoms: _351  and  _353
REMARK  142  A    between atoms: _353  and  _354
REMARK  143  A    between atoms: _356  and  _358
REMARK  144  A    between atoms: _358  and  _359
REMARK  145  A    between atoms: _358  and  _361
REMARK  146  A    between atoms: _361  and  _362
REMARK  147  A    between atoms: _365  and  _367
REMARK  148  A    between atoms: _367  and  _368
REMARK  149  A    between atoms: _367  and  _370
REMARK  150  A    between atoms: _370  and  _371
REMARK  151  A    between atoms: _374  and  _376
REMARK  152  A    between atoms: _376  and  _377
REMARK  153  A    between atoms: _380  and  _382
REMARK  154  A    between atoms: _382  and  _383
REMARK  155  A    between atoms: _382  and  _385
REMARK  156  A    between atoms: _385  and  _386
REMARK  157  A    between atoms: _386  and  _387
REMARK  158  A    between atoms: _387  and  _388
REMARK  159  A    between atoms: _397  and  _399
REMARK  160  A    between atoms: _399  and  _400
REMARK  161  A    between atoms: _399  and  _402
REMARK  162  A    between atoms: _402  and  _403
REMARK  163  A    between atoms: _406  and  _408
REMARK  164  A    between atoms: _408  and  _409
REMARK  165  A    between atoms: _408  and  _411
REMARK  166  A    between atoms: _411  and  _412
REMARK  167  A    between atoms: _417  and  _418
REMARK  168  A    between atoms: _420  and  _422
REMARK  169  A    between atoms: _422  and  _423
REMARK  170  A    between atoms: _422  and  _425
REMARK  171  A    between atoms: _425  and  _426
REMARK  172  A    between atoms: _429  and  _431
REMARK  173  A    between atoms: _431  and  _432
REMARK  174  A    between atoms: _431  and  _434
REMARK  175  A    between atoms: _437  and  _439
REMARK  176  A    between atoms: _439  and  _440
REMARK  177  A    between atoms: _439  and  _442
REMARK  178  A    between atoms: _442  and  _443
REMARK  179  A    between atoms: _446  and  _448
REMARK  180  A    between atoms: _448  and  _449
REMARK  181  A    between atoms: _448  and  _451
REMARK  182  A    between atoms: _451  and  _452
REMARK  183  A    between atoms: _454  and  _456
REMARK  184  A    between atoms: _456  and  _457
REMARK  185  A    between atoms: _459  and  _461
REMARK  186  A    between atoms: _461  and  _462
REMARK  187  A    between atoms: _461  and  _464
REMARK  188  A    between atoms: _464  and  _465
REMARK  189  A    between atoms: _468  and  _470
REMARK  190  A    between atoms: _470  and  _471
REMARK  191  A    between atoms: _470  and  _473
REMARK  192  A    between atoms: _473  and  _474
REMARK  193  A    between atoms: _477  and  _479
REMARK  194  A    between atoms: _479  and  _480
REMARK  195  A    between atoms: _479  and  _482
REMARK  196  A    between atoms: _482  and  _483
REMARK  197  A    between atoms: _488  and  _490
REMARK  198  A    between atoms: _490  and  _491
REMARK  199  A    between atoms: _490  and  _493
REMARK  200  A    between atoms: _493  and  _494
REMARK  201  A    between atoms: _494  and  _495
REMARK  202  A    between atoms: _495  and  _496
REMARK  203  A    between atoms: _505  and  _507
REMARK  204  A    between atoms: _507  and  _508
REMARK  205  A    between atoms: _507  and  _510
REMARK  206  A    between atoms: _513  and  _515
REMARK  207  A    between atoms: _515  and  _516
REMARK  208  A    between atoms: _518  and  _520
REMARK  209  A    between atoms: _520  and  _521
REMARK  210  A    between atoms: _524  and  _526
REMARK  211  A    between atoms: _526  and  _527
REMARK  212  A    between atoms: _526  and  _529
REMARK  213  A    between atoms: _532  and  _534
REMARK  214  A    between atoms: _534  and  _535
REMARK  215  A    between atoms: _534  and  _537
REMARK  216  A    between atoms: _537  and  _538
REMARK  217  A    between atoms: _538  and  _539
REMARK                            x       y       z     vdW  Elec       q    Type
REMARK                         _______ _______ _______ _____ _____    ______ ____
ROOT
ATOM      1  O   HOH     1      20.528   5.417  30.050  0.00  0.00    +0.000 OA
ENDROOT
TORSDOF 0
REMARK  Name = ../refined-set-2016/4h3g/4h3g_pocket.pdb
REMARK  217 active torsions:
REMARK  status: ('A' for Active; 'I' for Inactive)
REMARK    1  A    between atoms: _1  and  _3
REMARK    2  A    between atoms: _3  and  _4
REMARK    3  A    between atoms: _3  and  _6
REMARK    4  A    between atoms: _6  and  _7
REMARK    5  A    between atoms: _7  and  _8
REMARK    6  A    between atoms: _8  and  _9
REMARK    7  A    between atoms: _9  and  _10
REMARK    8  A    between atoms: _14  and  _16
REMARK    9  A    between atoms: _16  and  _17
REMARK   10  A    between atoms: _16  and  _19
REMARK   11  A    between atoms: _19  and  _20
REMARK   12  A    between atoms: _22  and  _24
REMARK   13  A    between atoms: _24  and  _25
REMARK   14  A    between atoms: _27  and  _29
REMARK   15  A    between atoms: _29  and  _30
REMARK   16  A    between atoms: _29  and  _32
REMARK   17  A    between atoms: _32  and  _33
REMARK   18  A    between atoms: _33  and  _34
REMARK   19  A    between atoms: _39  and  _41
REMARK   20  A    between atoms: _41  and  _42
REMARK   21  A    between atoms: _44  and  _46
REMARK   22  A    between atoms: _46  and  _47
REMARK   23  A    between atoms: _46  and  _49
REMARK   24  A    between atoms: _49  and  _50
REMARK   25  A    between atoms: _55  and  _56
REMARK   26  A    between atoms: _58  and  _60
REMARK   27  A    between atoms: _60  and  _61
REMARK   28  A    between atoms: _60  and  _63
REMARK   29  A    between atoms: _63  and  _64
REMARK   30  A    between atoms: _67  and  _69
REMARK   31  A    between atoms: _69  and  _70
REMARK   32  A    between atoms: _69  and  _72
REMARK   33  A    between atoms: _75  and  _77
REMARK   34  A    between atoms: _77  and  _78
REMARK   35  A    between atoms: _77  and  _80
REMARK   36  A    between atoms: _80  and  _81
REMARK   37  A    between atoms: _84  and  _86
REMARK   38  A    between atoms: _86  and  _87
REMARK   39  A    between atoms: _86  and  _89
REMARK   40  A    between atoms: _89  and  _90
REMARK   41  A    between atoms: _93  and  _95
REMARK   42  A    between atoms: _95  and  _96
REMARK   43  A    between atoms: _98  and  _100
REMARK   44  A    between atoms: _100  and  _101
REMARK   45  A    between atoms: _100  and  _103
REMARK   46  A    between atoms: _103  and  _104
REMARK   47  A    between atoms: _106  and  _108
REMARK   48  A    between atoms: _108  and  _109
REMARK   49  A    between atoms: _108  and  _111
REMARK   50  A    between atoms: _111  and  _112
REMARK   51  A    between atoms: _114  and  _116
REMARK   52  A    between atoms: _116  and  _117
REMARK   53  A    between atoms: _116  and  _119
REMARK   54  A    between atoms: _119  and  _120
REMARK   55  A    between atoms: _125  and  _127
REMARK   56  A    between atoms: _127  and  _128
REMARK   57  A    between atoms: _127  and  _130
REMARK   58  A    between atoms: _130  and  _131
REMARK   59  A    between atoms: _137  and  _139
REMARK   60  A    between atoms: _139  and  _140
REMARK   61  A    between atoms: _143  and  _145
REMARK   62  A    between atoms: _145  and  _146
REMARK   63  A    between atoms: _145  and  _148
REMARK   64  A    between atoms: _151  and  _153
REMARK   65  A    between atoms: _153  and  _154
REMARK   66  A    between atoms: _153  and  _156
REMARK   67  A    between atoms: _156  and  _157
REMARK   68  A    between atoms: _162  and  _163
REMARK   69  A    between atoms: _165  and  _167
REMARK   70  A    between atoms: _167  and  _168
REMARK   71  A    between atoms: _167  and  _170
REMARK   72  A    between atoms: _174  and  _175
REMARK   73  A    between atoms: _180  and  _182
REMARK   74  A    between atoms: _182  and  _183
REMARK   75  A    between atoms: _182  and  _185
REMARK   76  A    between atoms: _185  and  _186
REMARK   77  A    between atoms: _191  and  _192
REMARK   78  A    between atoms: _194  and  _196
REMARK   79  A    between atoms: _196  and  _197
REMARK   80  A    between atoms: _196  and  _199
REMARK   81  A    between atoms: _199  and  _200
REMARK   82  A    between atoms: _203  and  _205
REMARK   83  A    between atoms: _205  and  _206
REMARK   84  A    between atoms: _205  and  _208
REMARK   85  A    between atoms: _208  and  _209
REMARK   86  A    between atoms: _209  and  _210
REMARK   87  A    between atoms: _215  and  _217
REMARK   88  A    between atoms: _217  and  _218
REMARK   89  A    between atoms: _220  and  _222
REMARK   90  A    between atoms: _222  and  _223
REMARK   91  A    between atoms: _222  and  _225
REMARK   92  A    between atoms: _225  and  _226
REMARK   93  A    between atoms: _226  and  _227
REMARK   94  A    between atoms: _227  and  _228
REMARK   95  A    between atoms: _228  and  _229
REMARK   96  A    between atoms: _233  and  _235
REMARK   97  A    between atoms: _235  and  _236
REMARK   98  A    between atoms: _235  and  _238
REMARK   99  A    between atoms: _238  and  _239
REMARK  100  A    between atoms: _249  and  _251
REMARK  101  A    between atoms: _251  and  _252
REMARK  102  A    between atoms: _251  and  _254
REMARK  103  A    between atoms: _254  and  _255
REMARK  104  A    between atoms: _258  and  _260
REMARK  105  A    between atoms: _260  and  _261
REMARK  106  A    between atoms: _260  and  _263
REMARK  107  A    between atoms: _263  and  _264
REMARK  108  A    between atoms: _264  and  _265
REMARK  109  A    between atoms: _265  and  _266
REMARK  110  A    between atoms: _266  and  _267
REMARK  111  A    between atoms: _271  and  _273
REMARK  112  A    between atoms: _273  and  _274
REMARK  113  A    between atoms: _273  and  _276
REMARK  114  A    between atoms: _276  and  _277
REMARK  115  A    between atoms: _283  and  _285
REMARK  116  A    between atoms: _285  and  _286
REMARK  117  A    between atoms: _285  and  _288
REMARK  118  A    between atoms: _288  and  _289
REMARK  119  A    between atoms: _295  and  _297
REMARK  120  A    between atoms: _297  and  _298
REMARK  121  A    between atoms: _297  and  _300
REMARK  122  A    between atoms: _300  and  _301
REMARK  123  A    between atoms: _304  and  _306
REMARK  124  A    between atoms: _306  and  _307
REMARK  125  A    between atoms: _306  and  _309
REMARK  126  A    between atoms: _309  and  _310
REMARK  127  A    between atoms: _312  and  _314
REMARK  128  A    between atoms: _314  and  _315
REMARK  129  A    between atoms: _314  and  _317
REMARK  130  A    between atoms: _317  and  _318
REMARK  131  A    between atoms: _328  and  _330
REMARK  132  A    between atoms: _330  and  _331
REMARK  133  A    between atoms: _333  and  _335
REMARK  134  A    between atoms: _335  and  _336
REMARK  135  A    between atoms: _335  and  _338
REMARK  136  A    between atoms: _338  and  _339
REMARK  137  A    between atoms: _342  and  _344
REMARK  138  A    between atoms: _344  and  _345
REMARK  139  A    between atoms: _344  and  _347
REMARK  140  A    between atoms: _347  and  _348
REMARK  141  A    between atoms: _351  and  _353
REMARK  142  A    between atoms: _353  and  _354
REMARK  143  A    between atoms: _356  and  _358
REMARK  144  A    between atoms: _358  and  _359
REMARK  145  A    between atoms: _358  and  _361
REMARK  146  A    between atoms: _361  and  _362
REMARK  147  A    between atoms: _365  and  _367
REMARK  148  A    between atoms: _367  and  _368
REMARK  149  A    between atoms: _367  and  _370
REMARK  150  A    between atoms: _370  and  _371
REMARK  151  A    between atoms: _374  and  _376
REMARK  152  A    between atoms: _376  and  _377
REMARK  153  A    between atoms: _380  and  _382
REMARK  154  A    between atoms: _382  and  _383
REMARK  155  A    between atoms: _382  and  _385
REMARK  156  A    between atoms: _385  and  _386
REMARK  157  A    between atoms: _386  and  _387
REMARK  158  A    between atoms: _387  and  _388
REMARK  159  A    between atoms: _397  and  _399
REMARK  160  A    between atoms: _399  and  _400
REMARK  161  A    between atoms: _399  and  _402
REMARK  162  A    between atoms: _402  and  _403
REMARK  163  A    between atoms: _406  and  _408
REMARK  164  A    between atoms: _408  and  _409
REMARK  165  A    between atoms: _408  and  _411
REMARK  166  A    between atoms: _411  and  _412
REMARK  167  A    between atoms: _417  and  _418
REMARK  168  A    between atoms: _420  and  _422
REMARK  169  A    between atoms: _422  and  _423
REMARK  170  A    between atoms: _422  and  _425
REMARK  171  A    between atoms: _425  and  _426
REMARK  172  A    between atoms: _429  and  _431
REMARK  173  A    between atoms: _431  and  _432
REMARK  174  A    between atoms: _431  and  _434
REMARK  175  A    between atoms: _437  and  _439
REMARK  176  A    between atoms: _439  and  _440
REMARK  177  A    between atoms: _439  and  _442
REMARK  178  A    between atoms: _442  and  _443
REMARK  179  A    between atoms: _446  and  _448
REMARK  180  A    between atoms: _448  and  _449
REMARK  181  A    between atoms: _448  and  _451
REMARK  182  A    between atoms: _451  and  _452
REMARK  183  A    between atoms: _454  and  _456
REMARK  184  A    between atoms: _456  and  _457
REMARK  185  A    between atoms: _459  and  _461
REMARK  186  A    between atoms: _461  and  _462
REMARK  187  A    between atoms: _461  and  _464
REMARK  188  A    between atoms: _464  and  _465
REMARK  189  A    between atoms: _468  and  _470
REMARK  190  A    between atoms: _470  and  _471
REMARK  191  A    between atoms: _470  and  _473
REMARK  192  A    between atoms: _473  and  _474
REMARK  193  A    between atoms: _477  and  _479
REMARK  194  A    between atoms: _479  and  _480
REMARK  195  A    between atoms: _479  and  _482
REMARK  196  A    between atoms: _482  and  _483
REMARK  197  A    between atoms: _488  and  _490
REMARK  198  A    between atoms: _490  and  _491
REMARK  199  A    between atoms: _490  and  _493
REMARK  200  A    between atoms: _493  and  _494
REMARK  201  A    between atoms: _494  and  _495
REMARK  202  A    between atoms: _495  and  _496
REMARK  203  A    between atoms: _505  and  _507
REMARK  204  A    between atoms: _507  and  _508
REMARK  205  A    between atoms: _507  and  _510
REMARK  206  A    between atoms: _513  and  _515
REMARK  207  A    between atoms: _515  and  _516
REMARK  208  A    between atoms: _518  and  _520
REMARK  209  A    between atoms: _520  and  _521
REMARK  210  A    between atoms: _524  and  _526
REMARK  211  A    between atoms: _526  and  _527
REMARK  212  A    between atoms: _526  and  _529
REMARK  213  A    between atoms: _532  and  _534
REMARK  214  A    between atoms: _534  and  _535
REMARK  215  A    between atoms: _534  and  _537
REMARK  216  A    between atoms: _537  and  _538
REMARK  217  A    between atoms: _538  and  _539
REMARK                            x       y       z     vdW  Elec       q    Type
REMARK                         _______ _______ _______ _____ _____    ______ ____
ROOT
ATOM      1  O   HOH     1      17.883   5.726  19.445  0.00  0.00    +0.000 OA
ENDROOT
TORSDOF 0
REMARK  Name = ../refined-set-2016/4h3g/4h3g_pocket.pdb
REMARK  217 active torsions:
REMARK  status: ('A' for Active; 'I' for Inactive)
REMARK    1  A    between atoms: _1  and  _3
REMARK    2  A    between atoms: _3  and  _4
REMARK    3  A    between atoms: _3  and  _6
REMARK    4  A    between atoms: _6  and  _7
REMARK    5  A    between atoms: _7  and  _8
REMARK    6  A    between atoms: _8  and  _9
REMARK    7  A    between atoms: _9  and  _10
REMARK    8  A    between atoms: _14  and  _16
REMARK    9  A    between atoms: _16  and  _17
REMARK   10  A    between atoms: _16  and  _19
REMARK   11  A    between atoms: _19  and  _20
REMARK   12  A    between atoms: _22  and  _24
REMARK   13  A    between atoms: _24  and  _25
REMARK   14  A    between atoms: _27  and  _29
REMARK   15  A    between atoms: _29  and  _30
REMARK   16  A    between atoms: _29  and  _32
REMARK   17  A    between atoms: _32  and  _33
REMARK   18  A    between atoms: _33  and  _34
REMARK   19  A    between atoms: _39  and  _41
REMARK   20  A    between atoms: _41  and  _42
REMARK   21  A    between atoms: _44  and  _46
REMARK   22  A    between atoms: _46  and  _47
REMARK   23  A    between atoms: _46  and  _49
REMARK   24  A    between atoms: _49  and  _50
REMARK   25  A    between atoms: _55  and  _56
REMARK   26  A    between atoms: _58  and  _60
REMARK   27  A    between atoms: _60  and  _61
REMARK   28  A    between atoms: _60  and  _63
REMARK   29  A    between atoms: _63  and  _64
REMARK   30  A    between atoms: _67  and  _69
REMARK   31  A    between atoms: _69  and  _70
REMARK   32  A    between atoms: _69  and  _72
REMARK   33  A    between atoms: _75  and  _77
REMARK   34  A    between atoms: _77  and  _78
REMARK   35  A    between atoms: _77  and  _80
REMARK   36  A    between atoms: _80  and  _81
REMARK   37  A    between atoms: _84  and  _86
REMARK   38  A    between atoms: _86  and  _87
REMARK   39  A    between atoms: _86  and  _89
REMARK   40  A    between atoms: _89  and  _90
REMARK   41  A    between atoms: _93  and  _95
REMARK   42  A    between atoms: _95  and  _96
REMARK   43  A    between atoms: _98  and  _100
REMARK   44  A    between atoms: _100  and  _101
REMARK   45  A    between atoms: _100  and  _103
REMARK   46  A    between atoms: _103  and  _104
REMARK   47  A    between atoms: _106  and  _108
REMARK   48  A    between atoms: _108  and  _109
REMARK   49  A    between atoms: _108  and  _111
REMARK   50  A    between atoms: _111  and  _112
REMARK   51  A    between atoms: _114  and  _116
REMARK   52  A    between atoms: _116  and  _117
REMARK   53  A    between atoms: _116  and  _119
REMARK   54  A    between atoms: _119  and  _120
REMARK   55  A    between atoms: _125  and  _127
REMARK   56  A    between atoms: _127  and  _128
REMARK   57  A    between atoms: _127  and  _130
REMARK   58  A    between atoms: _130  and  _131
REMARK   59  A    between atoms: _137  and  _139
REMARK   60  A    between atoms: _139  and  _140
REMARK   61  A    between atoms: _143  and  _145
REMARK   62  A    between atoms: _145  and  _146
REMARK   63  A    between atoms: _145  and  _148
REMARK   64  A    between atoms: _151  and  _153
REMARK   65  A    between atoms: _153  and  _154
REMARK   66  A    between atoms: _153  and  _156
REMARK   67  A    between atoms: _156  and  _157
REMARK   68  A    between atoms: _162  and  _163
REMARK   69  A    between atoms: _165  and  _167
REMARK   70  A    between atoms: _167  and  _168
REMARK   71  A    between atoms: _167  and  _170
REMARK   72  A    between atoms: _174  and  _175
REMARK   73  A    between atoms: _180  and  _182
REMARK   74  A    between atoms: _182  and  _183
REMARK   75  A    between atoms: _182  and  _185
REMARK   76  A    between atoms: _185  and  _186
REMARK   77  A    between atoms: _191  and  _192
REMARK   78  A    between atoms: _194  and  _196
REMARK   79  A    between atoms: _196  and  _197
REMARK   80  A    between atoms: _196  and  _199
REMARK   81  A    between atoms: _199  and  _200
REMARK   82  A    between atoms: _203  and  _205
REMARK   83  A    between atoms: _205  and  _206
REMARK   84  A    between atoms: _205  and  _208
REMARK   85  A    between atoms: _208  and  _209
REMARK   86  A    between atoms: _209  and  _210
REMARK   87  A    between atoms: _215  and  _217
REMARK   88  A    between atoms: _217  and  _218
REMARK   89  A    between atoms: _220  and  _222
REMARK   90  A    between atoms: _222  and  _223
REMARK   91  A    between atoms: _222  and  _225
REMARK   92  A    between atoms: _225  and  _226
REMARK   93  A    between atoms: _226  and  _227
REMARK   94  A    between atoms: _227  and  _228
REMARK   95  A    between atoms: _228  and  _229
REMARK   96  A    between atoms: _233  and  _235
REMARK   97  A    between atoms: _235  and  _236
REMARK   98  A    between atoms: _235  and  _238
REMARK   99  A    between atoms: _238  and  _239
REMARK  100  A    between atoms: _249  and  _251
REMARK  101  A    between atoms: _251  and  _252
REMARK  102  A    between atoms: _251  and  _254
REMARK  103  A    between atoms: _254  and  _255
REMARK  104  A    between atoms: _258  and  _260
REMARK  105  A    between atoms: _260  and  _261
REMARK  106  A    between atoms: _260  and  _263
REMARK  107  A    between atoms: _263  and  _264
REMARK  108  A    between atoms: _264  and  _265
REMARK  109  A    between atoms: _265  and  _266
REMARK  110  A    between atoms: _266  and  _267
REMARK  111  A    between atoms: _271  and  _273
REMARK  112  A    between atoms: _273  and  _274
REMARK  113  A    between atoms: _273  and  _276
REMARK  114  A    between atoms: _276  and  _277
REMARK  115  A    between atoms: _283  and  _285
REMARK  116  A    between atoms: _285  and  _286
REMARK  117  A    between atoms: _285  and  _288
REMARK  118  A    between atoms: _288  and  _289
REMARK  119  A    between atoms: _295  and  _297
REMARK  120  A    between atoms: _297  and  _298
REMARK  121  A    between atoms: _297  and  _300
REMARK  122  A    between atoms: _300  and  _301
REMARK  123  A    between atoms: _304  and  _306
REMARK  124  A    between atoms: _306  and  _307
REMARK  125  A    between atoms: _306  and  _309
REMARK  126  A    between atoms: _309  and  _310
REMARK  127  A    between atoms: _312  and  _314
REMARK  128  A    between atoms: _314  and  _315
REMARK  129  A    between atoms: _314  and  _317
REMARK  130  A    between atoms: _317  and  _318
REMARK  131  A    between atoms: _328  and  _330
REMARK  132  A    between atoms: _330  and  _331
REMARK  133  A    between atoms: _333  and  _335
REMARK  134  A    between atoms: _335  and  _336
REMARK  135  A    between atoms: _335  and  _338
REMARK  136  A    between atoms: _338  and  _339
REMARK  137  A    between atoms: _342  and  _344
REMARK  138  A    between atoms: _344  and  _345
REMARK  139  A    between atoms: _344  and  _347
REMARK  140  A    between atoms: _347  and  _348
REMARK  141  A    between atoms: _351  and  _353
REMARK  142  A    between atoms: _353  and  _354
REMARK  143  A    between atoms: _356  and  _358
REMARK  144  A    between atoms: _358  and  _359
REMARK  145  A    between atoms: _358  and  _361
REMARK  146  A    between atoms: _361  and  _362
REMARK  147  A    between atoms: _365  and  _367
REMARK  148  A    between atoms: _367  and  _368
REMARK  149  A    between atoms: _367  and  _370
REMARK  150  A    between atoms: _370  and  _371
REMARK  151  A    between atoms: _374  and  _376
REMARK  152  A    between atoms: _376  and  _377
REMARK  153  A    between atoms: _380  and  _382
REMARK  154  A    between atoms: _382  and  _383
REMARK  155  A    between atoms: _382  and  _385
REMARK  156  A    between atoms: _385  and  _386
REMARK  157  A    between atoms: _386  and  _387
REMARK  158  A    between atoms: _387  and  _388
REMARK  159  A    between atoms: _397  and  _399
REMARK  160  A    between atoms: _399  and  _400
REMARK  161  A    between atoms: _399  and  _402
REMARK  162  A    between atoms: _402  and  _403
REMARK  163  A    between atoms: _406  and  _408
REMARK  164  A    between atoms: _408  and  _409
REMARK  165  A    between atoms: _408  and  _411
REMARK  166  A    between atoms: _411  and  _412
REMARK  167  A    between atoms: _417  and  _418
REMARK  168  A    between atoms: _420  and  _422
REMARK  169  A    between atoms: _422  and  _423
REMARK  170  A    between atoms: _422  and  _425
REMARK  171  A    between atoms: _425  and  _426
REMARK  172  A    between atoms: _429  and  _431
REMARK  173  A    between atoms: _431  and  _432
REMARK  174  A    between atoms: _431  and  _434
REMARK  175  A    between atoms: _437  and  _439
REMARK  176  A    between atoms: _439  and  _440
REMARK  177  A    between atoms: _439  and  _442
REMARK  178  A    between atoms: _442  and  _443
REMARK  179  A    between atoms: _446  and  _448
REMARK  180  A    between atoms: _448  and  _449
REMARK  181  A    between atoms: _448  and  _451
REMARK  182  A    between atoms: _451  and  _452
REMARK  183  A    between atoms: _454  and  _456
REMARK  184  A    between atoms: _456  and  _457
REMARK  185  A    between atoms: _459  and  _461
REMARK  186  A    between atoms: _461  and  _462
REMARK  187  A    between atoms: _461  and  _464
REMARK  188  A    between atoms: _464  and  _465
REMARK  189  A    between atoms: _468  and  _470
REMARK  190  A    between atoms: _470  and  _471
REMARK  191  A    between atoms: _470  and  _473
REMARK  192  A    between atoms: _473  and  _474
REMARK  193  A    between atoms: _477  and  _479
REMARK  194  A    between atoms: _479  and  _480
REMARK  195  A    between atoms: _479  and  _482
REMARK  196  A    between atoms: _482  and  _483
REMARK  197  A    between atoms: _488  and  _490
REMARK  198  A    between atoms: _490  and  _491
REMARK  199  A    between atoms: _490  and  _493
REMARK  200  A    between atoms: _493  and  _494
REMARK  201  A    between atoms: _494  and  _495
REMARK  202  A    between atoms: _495  and  _496
REMARK  203  A    between atoms: _505  and  _507
REMARK  204  A    between atoms: _507  and  _508
REMARK  205  A    between atoms: _507  and  _510
REMARK  206  A    between atoms: _513  and  _515
REMARK  207  A    between atoms: _515  and  _516
REMARK  208  A    between atoms: _518  and  _520
REMARK  209  A    between atoms: _520  and  _521
REMARK  210  A    between atoms: _524  and  _526
REMARK  211  A    between atoms: _526  and  _527
REMARK  212  A    between atoms: _526  and  _529
REMARK  213  A    between atoms: _532  and  _534
REMARK  214  A    between atoms: _534  and  _535
REMARK  215  A    between atoms: _534  and  _537
REMARK  216  A    between atoms: _537  and  _538
REMARK  217  A    between atoms: _538  and  _539
REMARK                            x       y       z     vdW  Elec       q    Type
REMARK                         _______ _______ _______ _____ _____    ______ ____
ROOT
ATOM      1  O   HOH     1      29.346  15.208  26.845  0.00  0.00    +0.000 OA
ENDROOT
TORSDOF 0
REMARK  Name = ../refined-set-2016/4h3g/4h3g_pocket.pdb
REMARK  217 active torsions:
REMARK  status: ('A' for Active; 'I' for Inactive)
REMARK    1  A    between atoms: _1  and  _3
REMARK    2  A    between atoms: _3  and  _4
REMARK    3  A    between atoms: _3  and  _6
REMARK    4  A    between atoms: _6  and  _7
REMARK    5  A    between atoms: _7  and  _8
REMARK    6  A    between atoms: _8  and  _9
REMARK    7  A    between atoms: _9  and  _10
REMARK    8  A    between atoms: _14  and  _16
REMARK    9  A    between atoms: _16  and  _17
REMARK   10  A    between atoms: _16  and  _19
REMARK   11  A    between atoms: _19  and  _20
REMARK   12  A    between atoms: _22  and  _24
REMARK   13  A    between atoms: _24  and  _25
REMARK   14  A    between atoms: _27  and  _29
REMARK   15  A    between atoms: _29  and  _30
REMARK   16  A    between atoms: _29  and  _32
REMARK   17  A    between atoms: _32  and  _33
REMARK   18  A    between atoms: _33  and  _34
REMARK   19  A    between atoms: _39  and  _41
REMARK   20  A    between atoms: _41  and  _42
REMARK   21  A    between atoms: _44  and  _46
REMARK   22  A    between atoms: _46  and  _47
REMARK   23  A    between atoms: _46  and  _49
REMARK   24  A    between atoms: _49  and  _50
REMARK   25  A    between atoms: _55  and  _56
REMARK   26  A    between atoms: _58  and  _60
REMARK   27  A    between atoms: _60  and  _61
REMARK   28  A    between atoms: _60  and  _63
REMARK   29  A    between atoms: _63  and  _64
REMARK   30  A    between atoms: _67  and  _69
REMARK   31  A    between atoms: _69  and  _70
REMARK   32  A    between atoms: _69  and  _72
REMARK   33  A    between atoms: _75  and  _77
REMARK   34  A    between atoms: _77  and  _78
REMARK   35  A    between atoms: _77  and  _80
REMARK   36  A    between atoms: _80  and  _81
REMARK   37  A    between atoms: _84  and  _86
REMARK   38  A    between atoms: _86  and  _87
REMARK   39  A    between atoms: _86  and  _89
REMARK   40  A    between atoms: _89  and  _90
REMARK   41  A    between atoms: _93  and  _95
REMARK   42  A    between atoms: _95  and  _96
REMARK   43  A    between atoms: _98  and  _100
REMARK   44  A    between atoms: _100  and  _101
REMARK   45  A    between atoms: _100  and  _103
REMARK   46  A    between atoms: _103  and  _104
REMARK   47  A    between atoms: _106  and  _108
REMARK   48  A    between atoms: _108  and  _109
REMARK   49  A    between atoms: _108  and  _111
REMARK   50  A    between atoms: _111  and  _112
REMARK   51  A    between atoms: _114  and  _116
REMARK   52  A    between atoms: _116  and  _117
REMARK   53  A    between atoms: _116  and  _119
REMARK   54  A    between atoms: _119  and  _120
REMARK   55  A    between atoms: _125  and  _127
REMARK   56  A    between atoms: _127  and  _128
REMARK   57  A    between atoms: _127  and  _130
REMARK   58  A    between atoms: _130  and  _131
REMARK   59  A    between atoms: _137  and  _139
REMARK   60  A    between atoms: _139  and  _140
REMARK   61  A    between atoms: _143  and  _145
REMARK   62  A    between atoms: _145  and  _146
REMARK   63  A    between atoms: _145  and  _148
REMARK   64  A    between atoms: _151  and  _153
REMARK   65  A    between atoms: _153  and  _154
REMARK   66  A    between atoms: _153  and  _156
REMARK   67  A    between atoms: _156  and  _157
REMARK   68  A    between atoms: _162  and  _163
REMARK   69  A    between atoms: _165  and  _167
REMARK   70  A    between atoms: _167  and  _168
REMARK   71  A    between atoms: _167  and  _170
REMARK   72  A    between atoms: _174  and  _175
REMARK   73  A    between atoms: _180  and  _182
REMARK   74  A    between atoms: _182  and  _183
REMARK   75  A    between atoms: _182  and  _185
REMARK   76  A    between atoms: _185  and  _186
REMARK   77  A    between atoms: _191  and  _192
REMARK   78  A    between atoms: _194  and  _196
REMARK   79  A    between atoms: _196  and  _197
REMARK   80  A    between atoms: _196  and  _199
REMARK   81  A    between atoms: _199  and  _200
REMARK   82  A    between atoms: _203  and  _205
REMARK   83  A    between atoms: _205  and  _206
REMARK   84  A    between atoms: _205  and  _208
REMARK   85  A    between atoms: _208  and  _209
REMARK   86  A    between atoms: _209  and  _210
REMARK   87  A    between atoms: _215  and  _217
REMARK   88  A    between atoms: _217  and  _218
REMARK   89  A    between atoms: _220  and  _222
REMARK   90  A    between atoms: _222  and  _223
REMARK   91  A    between atoms: _222  and  _225
REMARK   92  A    between atoms: _225  and  _226
REMARK   93  A    between atoms: _226  and  _227
REMARK   94  A    between atoms: _227  and  _228
REMARK   95  A    between atoms: _228  and  _229
REMARK   96  A    between atoms: _233  and  _235
REMARK   97  A    between atoms: _235  and  _236
REMARK   98  A    between atoms: _235  and  _238
REMARK   99  A    between atoms: _238  and  _239
REMARK  100  A    between atoms: _249  and  _251
REMARK  101  A    between atoms: _251  and  _252
REMARK  102  A    between atoms: _251  and  _254
REMARK  103  A    between atoms: _254  and  _255
REMARK  104  A    between atoms: _258  and  _260
REMARK  105  A    between atoms: _260  and  _261
REMARK  106  A    between atoms: _260  and  _263
REMARK  107  A    between atoms: _263  and  _264
REMARK  108  A    between atoms: _264  and  _265
REMARK  109  A    between atoms: _265  and  _266
REMARK  110  A    between atoms: _266  and  _267
REMARK  111  A    between atoms: _271  and  _273
REMARK  112  A    between atoms: _273  and  _274
REMARK  113  A    between atoms: _273  and  _276
REMARK  114  A    between atoms: _276  and  _277
REMARK  115  A    between atoms: _283  and  _285
REMARK  116  A    between atoms: _285  and  _286
REMARK  117  A    between atoms: _285  and  _288
REMARK  118  A    between atoms: _288  and  _289
REMARK  119  A    between atoms: _295  and  _297
REMARK  120  A    between atoms: _297  and  _298
REMARK  121  A    between atoms: _297  and  _300
REMARK  122  A    between atoms: _300  and  _301
REMARK  123  A    between atoms: _304  and  _306
REMARK  124  A    between atoms: _306  and  _307
REMARK  125  A    between atoms: _306  and  _309
REMARK  126  A    between atoms: _309  and  _310
REMARK  127  A    between atoms: _312  and  _314
REMARK  128  A    between atoms: _314  and  _315
REMARK  129  A    between atoms: _314  and  _317
REMARK  130  A    between atoms: _317  and  _318
REMARK  131  A    between atoms: _328  and  _330
REMARK  132  A    between atoms: _330  and  _331
REMARK  133  A    between atoms: _333  and  _335
REMARK  134  A    between atoms: _335  and  _336
REMARK  135  A    between atoms: _335  and  _338
REMARK  136  A    between atoms: _338  and  _339
REMARK  137  A    between atoms: _342  and  _344
REMARK  138  A    between atoms: _344  and  _345
REMARK  139  A    between atoms: _344  and  _347
REMARK  140  A    between atoms: _347  and  _348
REMARK  141  A    between atoms: _351  and  _353
REMARK  142  A    between atoms: _353  and  _354
REMARK  143  A    between atoms: _356  and  _358
REMARK  144  A    between atoms: _358  and  _359
REMARK  145  A    between atoms: _358  and  _361
REMARK  146  A    between atoms: _361  and  _362
REMARK  147  A    between atoms: _365  and  _367
REMARK  148  A    between atoms: _367  and  _368
REMARK  149  A    between atoms: _367  and  _370
REMARK  150  A    between atoms: _370  and  _371
REMARK  151  A    between atoms: _374  and  _376
REMARK  152  A    between atoms: _376  and  _377
REMARK  153  A    between atoms: _380  and  _382
REMARK  154  A    between atoms: _382  and  _383
REMARK  155  A    between atoms: _382  and  _385
REMARK  156  A    between atoms: _385  and  _386
REMARK  157  A    between atoms: _386  and  _387
REMARK  158  A    between atoms: _387  and  _388
REMARK  159  A    between atoms: _397  and  _399
REMARK  160  A    between atoms: _399  and  _400
REMARK  161  A    between atoms: _399  and  _402
REMARK  162  A    between atoms: _402  and  _403
REMARK  163  A    between atoms: _406  and  _408
REMARK  164  A    between atoms: _408  and  _409
REMARK  165  A    between atoms: _408  and  _411
REMARK  166  A    between atoms: _411  and  _412
REMARK  167  A    between atoms: _417  and  _418
REMARK  168  A    between atoms: _420  and  _422
REMARK  169  A    between atoms: _422  and  _423
REMARK  170  A    between atoms: _422  and  _425
REMARK  171  A    between atoms: _425  and  _426
REMARK  172  A    between atoms: _429  and  _431
REMARK  173  A    between atoms: _431  and  _432
REMARK  174  A    between atoms: _431  and  _434
REMARK  175  A    between atoms: _437  and  _439
REMARK  176  A    between atoms: _439  and  _440
REMARK  177  A    between atoms: _439  and  _442
REMARK  178  A    between atoms: _442  and  _443
REMARK  179  A    between atoms: _446  and  _448
REMARK  180  A    between atoms: _448  and  _449
REMARK  181  A    between atoms: _448  and  _451
REMARK  182  A    between atoms: _451  and  _452
REMARK  183  A    between atoms: _454  and  _456
REMARK  184  A    between atoms: _456  and  _457
REMARK  185  A    between atoms: _459  and  _461
REMARK  186  A    between atoms: _461  and  _462
REMARK  187  A    between atoms: _461  and  _464
REMARK  188  A    between atoms: _464  and  _465
REMARK  189  A    between atoms: _468  and  _470
REMARK  190  A    between atoms: _470  and  _471
REMARK  191  A    between atoms: _470  and  _473
REMARK  192  A    between atoms: _473  and  _474
REMARK  193  A    between atoms: _477  and  _479
REMARK  194  A    between atoms: _479  and  _480
REMARK  195  A    between atoms: _479  and  _482
REMARK  196  A    between atoms: _482  and  _483
REMARK  197  A    between atoms: _488  and  _490
REMARK  198  A    between atoms: _490  and  _491
REMARK  199  A    between atoms: _490  and  _493
REMARK  200  A    between atoms: _493  and  _494
REMARK  201  A    between atoms: _494  and  _495
REMARK  202  A    between atoms: _495  and  _496
REMARK  203  A    between atoms: _505  and  _507
REMARK  204  A    between atoms: _507  and  _508
REMARK  205  A    between atoms: _507  and  _510
REMARK  206  A    between atoms: _513  and  _515
REMARK  207  A    between atoms: _515  and  _516
REMARK  208  A    between atoms: _518  and  _520
REMARK  209  A    between atoms: _520  and  _521
REMARK  210  A    between atoms: _524  and  _526
REMARK  211  A    between atoms: _526  and  _527
REMARK  212  A    between atoms: _526  and  _529
REMARK  213  A    between atoms: _532  and  _534
REMARK  214  A    between atoms: _534  and  _535
REMARK  215  A    between atoms: _534  and  _537
REMARK  216  A    between atoms: _537  and  _538
REMARK  217  A    between atoms: _538  and  _539
REMARK                            x       y       z     vdW  Elec       q    Type
REMARK                         _______ _______ _______ _____ _____    ______ ____
ROOT
ATOM      1  O   HOH     1      14.635   6.348  21.698  0.00  0.00    +0.000 OA
ENDROOT
TORSDOF 0
REMARK  Name = ../refined-set-2016/4h3g/4h3g_pocket.pdb
REMARK  217 active torsions:
REMARK  status: ('A' for Active; 'I' for Inactive)
REMARK    1  A    between atoms: _1  and  _3
REMARK    2  A    between atoms: _3  and  _4
REMARK    3  A    between atoms: _3  and  _6
REMARK    4  A    between atoms: _6  and  _7
REMARK    5  A    between atoms: _7  and  _8
REMARK    6  A    between atoms: _8  and  _9
REMARK    7  A    between atoms: _9  and  _10
REMARK    8  A    between atoms: _14  and  _16
REMARK    9  A    between atoms: _16  and  _17
REMARK   10  A    between atoms: _16  and  _19
REMARK   11  A    between atoms: _19  and  _20
REMARK   12  A    between atoms: _22  and  _24
REMARK   13  A    between atoms: _24  and  _25
REMARK   14  A    between atoms: _27  and  _29
REMARK   15  A    between atoms: _29  and  _30
REMARK   16  A    between atoms: _29  and  _32
REMARK   17  A    between atoms: _32  and  _33
REMARK   18  A    between atoms: _33  and  _34
REMARK   19  A    between atoms: _39  and  _41
REMARK   20  A    between atoms: _41  and  _42
REMARK   21  A    between atoms: _44  and  _46
REMARK   22  A    between atoms: _46  and  _47
REMARK   23  A    between atoms: _46  and  _49
REMARK   24  A    between atoms: _49  and  _50
REMARK   25  A    between atoms: _55  and  _56
REMARK   26  A    between atoms: _58  and  _60
REMARK   27  A    between atoms: _60  and  _61
REMARK   28  A    between atoms: _60  and  _63
REMARK   29  A    between atoms: _63  and  _64
REMARK   30  A    between atoms: _67  and  _69
REMARK   31  A    between atoms: _69  and  _70
REMARK   32  A    between atoms: _69  and  _72
REMARK   33  A    between atoms: _75  and  _77
REMARK   34  A    between atoms: _77  and  _78
REMARK   35  A    between atoms: _77  and  _80
REMARK   36  A    between atoms: _80  and  _81
REMARK   37  A    between atoms: _84  and  _86
REMARK   38  A    between atoms: _86  and  _87
REMARK   39  A    between atoms: _86  and  _89
REMARK   40  A    between atoms: _89  and  _90
REMARK   41  A    between atoms: _93  and  _95
REMARK   42  A    between atoms: _95  and  _96
REMARK   43  A    between atoms: _98  and  _100
REMARK   44  A    between atoms: _100  and  _101
REMARK   45  A    between atoms: _100  and  _103
REMARK   46  A    between atoms: _103  and  _104
REMARK   47  A    between atoms: _106  and  _108
REMARK   48  A    between atoms: _108  and  _109
REMARK   49  A    between atoms: _108  and  _111
REMARK   50  A    between atoms: _111  and  _112
REMARK   51  A    between atoms: _114  and  _116
REMARK   52  A    between atoms: _116  and  _117
REMARK   53  A    between atoms: _116  and  _119
REMARK   54  A    between atoms: _119  and  _120
REMARK   55  A    between atoms: _125  and  _127
REMARK   56  A    between atoms: _127  and  _128
REMARK   57  A    between atoms: _127  and  _130
REMARK   58  A    between atoms: _130  and  _131
REMARK   59  A    between atoms: _137  and  _139
REMARK   60  A    between atoms: _139  and  _140
REMARK   61  A    between atoms: _143  and  _145
REMARK   62  A    between atoms: _145  and  _146
REMARK   63  A    between atoms: _145  and  _148
REMARK   64  A    between atoms: _151  and  _153
REMARK   65  A    between atoms: _153  and  _154
REMARK   66  A    between atoms: _153  and  _156
REMARK   67  A    between atoms: _156  and  _157
REMARK   68  A    between atoms: _162  and  _163
REMARK   69  A    between atoms: _165  and  _167
REMARK   70  A    between atoms: _167  and  _168
REMARK   71  A    between atoms: _167  and  _170
REMARK   72  A    between atoms: _174  and  _175
REMARK   73  A    between atoms: _180  and  _182
REMARK   74  A    between atoms: _182  and  _183
REMARK   75  A    between atoms: _182  and  _185
REMARK   76  A    between atoms: _185  and  _186
REMARK   77  A    between atoms: _191  and  _192
REMARK   78  A    between atoms: _194  and  _196
REMARK   79  A    between atoms: _196  and  _197
REMARK   80  A    between atoms: _196  and  _199
REMARK   81  A    between atoms: _199  and  _200
REMARK   82  A    between atoms: _203  and  _205
REMARK   83  A    between atoms: _205  and  _206
REMARK   84  A    between atoms: _205  and  _208
REMARK   85  A    between atoms: _208  and  _209
REMARK   86  A    between atoms: _209  and  _210
REMARK   87  A    between atoms: _215  and  _217
REMARK   88  A    between atoms: _217  and  _218
REMARK   89  A    between atoms: _220  and  _222
REMARK   90  A    between atoms: _222  and  _223
REMARK   91  A    between atoms: _222  and  _225
REMARK   92  A    between atoms: _225  and  _226
REMARK   93  A    between atoms: _226  and  _227
REMARK   94  A    between atoms: _227  and  _228
REMARK   95  A    between atoms: _228  and  _229
REMARK   96  A    between atoms: _233  and  _235
REMARK   97  A    between atoms: _235  and  _236
REMARK   98  A    between atoms: _235  and  _238
REMARK   99  A    between atoms: _238  and  _239
REMARK  100  A    between atoms: _249  and  _251
REMARK  101  A    between atoms: _251  and  _252
REMARK  102  A    between atoms: _251  and  _254
REMARK  103  A    between atoms: _254  and  _255
REMARK  104  A    between atoms: _258  and  _260
REMARK  105  A    between atoms: _260  and  _261
REMARK  106  A    between atoms: _260  and  _263
REMARK  107  A    between atoms: _263  and  _264
REMARK  108  A    between atoms: _264  and  _265
REMARK  109  A    between atoms: _265  and  _266
REMARK  110  A    between atoms: _266  and  _267
REMARK  111  A    between atoms: _271  and  _273
REMARK  112  A    between atoms: _273  and  _274
REMARK  113  A    between atoms: _273  and  _276
REMARK  114  A    between atoms: _276  and  _277
REMARK  115  A    between atoms: _283  and  _285
REMARK  116  A    between atoms: _285  and  _286
REMARK  117  A    between atoms: _285  and  _288
REMARK  118  A    between atoms: _288  and  _289
REMARK  119  A    between atoms: _295  and  _297
REMARK  120  A    between atoms: _297  and  _298
REMARK  121  A    between atoms: _297  and  _300
REMARK  122  A    between atoms: _300  and  _301
REMARK  123  A    between atoms: _304  and  _306
REMARK  124  A    between atoms: _306  and  _307
REMARK  125  A    between atoms: _306  and  _309
REMARK  126  A    between atoms: _309  and  _310
REMARK  127  A    between atoms: _312  and  _314
REMARK  128  A    between atoms: _314  and  _315
REMARK  129  A    between atoms: _314  and  _317
REMARK  130  A    between atoms: _317  and  _318
REMARK  131  A    between atoms: _328  and  _330
REMARK  132  A    between atoms: _330  and  _331
REMARK  133  A    between atoms: _333  and  _335
REMARK  134  A    between atoms: _335  and  _336
REMARK  135  A    between atoms: _335  and  _338
REMARK  136  A    between atoms: _338  and  _339
REMARK  137  A    between atoms: _342  and  _344
REMARK  138  A    between atoms: _344  and  _345
REMARK  139  A    between atoms: _344  and  _347
REMARK  140  A    between atoms: _347  and  _348
REMARK  141  A    between atoms: _351  and  _353
REMARK  142  A    between atoms: _353  and  _354
REMARK  143  A    between atoms: _356  and  _358
REMARK  144  A    between atoms: _358  and  _359
REMARK  145  A    between atoms: _358  and  _361
REMARK  146  A    between atoms: _361  and  _362
REMARK  147  A    between atoms: _365  and  _367
REMARK  148  A    between atoms: _367  and  _368
REMARK  149  A    between atoms: _367  and  _370
REMARK  150  A    between atoms: _370  and  _371
REMARK  151  A    between atoms: _374  and  _376
REMARK  152  A    between atoms: _376  and  _377
REMARK  153  A    between atoms: _380  and  _382
REMARK  154  A    between atoms: _382  and  _383
REMARK  155  A    between atoms: _382  and  _385
REMARK  156  A    between atoms: _385  and  _386
REMARK  157  A    between atoms: _386  and  _387
REMARK  158  A    between atoms: _387  and  _388
REMARK  159  A    between atoms: _397  and  _399
REMARK  160  A    between atoms: _399  and  _400
REMARK  161  A    between atoms: _399  and  _402
REMARK  162  A    between atoms: _402  and  _403
REMARK  163  A    between atoms: _406  and  _408
REMARK  164  A    between atoms: _408  and  _409
REMARK  165  A    between atoms: _408  and  _411
REMARK  166  A    between atoms: _411  and  _412
REMARK  167  A    between atoms: _417  and  _418
REMARK  168  A    between atoms: _420  and  _422
REMARK  169  A    between atoms: _422  and  _423
REMARK  170  A    between atoms: _422  and  _425
REMARK  171  A    between atoms: _425  and  _426
REMARK  172  A    between atoms: _429  and  _431
REMARK  173  A    between atoms: _431  and  _432
REMARK  174  A    between atoms: _431  and  _434
REMARK  175  A    between atoms: _437  and  _439
REMARK  176  A    between atoms: _439  and  _440
REMARK  177  A    between atoms: _439  and  _442
REMARK  178  A    between atoms: _442  and  _443
REMARK  179  A    between atoms: _446  and  _448
REMARK  180  A    between atoms: _448  and  _449
REMARK  181  A    between atoms: _448  and  _451
REMARK  182  A    between atoms: _451  and  _452
REMARK  183  A    between atoms: _454  and  _456
REMARK  184  A    between atoms: _456  and  _457
REMARK  185  A    between atoms: _459  and  _461
REMARK  186  A    between atoms: _461  and  _462
REMARK  187  A    between atoms: _461  and  _464
REMARK  188  A    between atoms: _464  and  _465
REMARK  189  A    between atoms: _468  and  _470
REMARK  190  A    between atoms: _470  and  _471
REMARK  191  A    between atoms: _470  and  _473
REMARK  192  A    between atoms: _473  and  _474
REMARK  193  A    between atoms: _477  and  _479
REMARK  194  A    between atoms: _479  and  _480
REMARK  195  A    between atoms: _479  and  _482
REMARK  196  A    between atoms: _482  and  _483
REMARK  197  A    between atoms: _488  and  _490
REMARK  198  A    between atoms: _490  and  _491
REMARK  199  A    between atoms: _490  and  _493
REMARK  200  A    between atoms: _493  and  _494
REMARK  201  A    between atoms: _494  and  _495
REMARK  202  A    between atoms: _495  and  _496
REMARK  203  A    between atoms: _505  and  _507
REMARK  204  A    between atoms: _507  and  _508
REMARK  205  A    between atoms: _507  and  _510
REMARK  206  A    between atoms: _513  and  _515
REMARK  207  A    between atoms: _515  and  _516
REMARK  208  A    between atoms: _518  and  _520
REMARK  209  A    between atoms: _520  and  _521
REMARK  210  A    between atoms: _524  and  _526
REMARK  211  A    between atoms: _526  and  _527
REMARK  212  A    between atoms: _526  and  _529
REMARK  213  A    between atoms: _532  and  _534
REMARK  214  A    between atoms: _534  and  _535
REMARK  215  A    between atoms: _534  and  _537
REMARK  216  A    between atoms: _537  and  _538
REMARK  217  A    between atoms: _538  and  _539
REMARK                            x       y       z     vdW  Elec       q    Type
REMARK                         _______ _______ _______ _____ _____    ______ ____
ROOT
ATOM      1  O   HOH     1      29.196   5.287  22.291  0.00  0.00    +0.000 OA
ENDROOT
TORSDOF 0
REMARK  Name = ../refined-set-2016/4h3g/4h3g_pocket.pdb
REMARK  217 active torsions:
REMARK  status: ('A' for Active; 'I' for Inactive)
REMARK    1  A    between atoms: _1  and  _3
REMARK    2  A    between atoms: _3  and  _4
REMARK    3  A    between atoms: _3  and  _6
REMARK    4  A    between atoms: _6  and  _7
REMARK    5  A    between atoms: _7  and  _8
REMARK    6  A    between atoms: _8  and  _9
REMARK    7  A    between atoms: _9  and  _10
REMARK    8  A    between atoms: _14  and  _16
REMARK    9  A    between atoms: _16  and  _17
REMARK   10  A    between atoms: _16  and  _19
REMARK   11  A    between atoms: _19  and  _20
REMARK   12  A    between atoms: _22  and  _24
REMARK   13  A    between atoms: _24  and  _25
REMARK   14  A    between atoms: _27  and  _29
REMARK   15  A    between atoms: _29  and  _30
REMARK   16  A    between atoms: _29  and  _32
REMARK   17  A    between atoms: _32  and  _33
REMARK   18  A    between atoms: _33  and  _34
REMARK   19  A    between atoms: _39  and  _41
REMARK   20  A    between atoms: _41  and  _42
REMARK   21  A    between atoms: _44  and  _46
REMARK   22  A    between atoms: _46  and  _47
REMARK   23  A    between atoms: _46  and  _49
REMARK   24  A    between atoms: _49  and  _50
REMARK   25  A    between atoms: _55  and  _56
REMARK   26  A    between atoms: _58  and  _60
REMARK   27  A    between atoms: _60  and  _61
REMARK   28  A    between atoms: _60  and  _63
REMARK   29  A    between atoms: _63  and  _64
REMARK   30  A    between atoms: _67  and  _69
REMARK   31  A    between atoms: _69  and  _70
REMARK   32  A    between atoms: _69  and  _72
REMARK   33  A    between atoms: _75  and  _77
REMARK   34  A    between atoms: _77  and  _78
REMARK   35  A    between atoms: _77  and  _80
REMARK   36  A    between atoms: _80  and  _81
REMARK   37  A    between atoms: _84  and  _86
REMARK   38  A    between atoms: _86  and  _87
REMARK   39  A    between atoms: _86  and  _89
REMARK   40  A    between atoms: _89  and  _90
REMARK   41  A    between atoms: _93  and  _95
REMARK   42  A    between atoms: _95  and  _96
REMARK   43  A    between atoms: _98  and  _100
REMARK   44  A    between atoms: _100  and  _101
REMARK   45  A    between atoms: _100  and  _103
REMARK   46  A    between atoms: _103  and  _104
REMARK   47  A    between atoms: _106  and  _108
REMARK   48  A    between atoms: _108  and  _109
REMARK   49  A    between atoms: _108  and  _111
REMARK   50  A    between atoms: _111  and  _112
REMARK   51  A    between atoms: _114  and  _116
REMARK   52  A    between atoms: _116  and  _117
REMARK   53  A    between atoms: _116  and  _119
REMARK   54  A    between atoms: _119  and  _120
REMARK   55  A    between atoms: _125  and  _127
REMARK   56  A    between atoms: _127  and  _128
REMARK   57  A    between atoms: _127  and  _130
REMARK   58  A    between atoms: _130  and  _131
REMARK   59  A    between atoms: _137  and  _139
REMARK   60  A    between atoms: _139  and  _140
REMARK   61  A    between atoms: _143  and  _145
REMARK   62  A    between atoms: _145  and  _146
REMARK   63  A    between atoms: _145  and  _148
REMARK   64  A    between atoms: _151  and  _153
REMARK   65  A    between atoms: _153  and  _154
REMARK   66  A    between atoms: _153  and  _156
REMARK   67  A    between atoms: _156  and  _157
REMARK   68  A    between atoms: _162  and  _163
REMARK   69  A    between atoms: _165  and  _167
REMARK   70  A    between atoms: _167  and  _168
REMARK   71  A    between atoms: _167  and  _170
REMARK   72  A    between atoms: _174  and  _175
REMARK   73  A    between atoms: _180  and  _182
REMARK   74  A    between atoms: _182  and  _183
REMARK   75  A    between atoms: _182  and  _185
REMARK   76  A    between atoms: _185  and  _186
REMARK   77  A    between atoms: _191  and  _192
REMARK   78  A    between atoms: _194  and  _196
REMARK   79  A    between atoms: _196  and  _197
REMARK   80  A    between atoms: _196  and  _199
REMARK   81  A    between atoms: _199  and  _200
REMARK   82  A    between atoms: _203  and  _205
REMARK   83  A    between atoms: _205  and  _206
REMARK   84  A    between atoms: _205  and  _208
REMARK   85  A    between atoms: _208  and  _209
REMARK   86  A    between atoms: _209  and  _210
REMARK   87  A    between atoms: _215  and  _217
REMARK   88  A    between atoms: _217  and  _218
REMARK   89  A    between atoms: _220  and  _222
REMARK   90  A    between atoms: _222  and  _223
REMARK   91  A    between atoms: _222  and  _225
REMARK   92  A    between atoms: _225  and  _226
REMARK   93  A    between atoms: _226  and  _227
REMARK   94  A    between atoms: _227  and  _228
REMARK   95  A    between atoms: _228  and  _229
REMARK   96  A    between atoms: _233  and  _235
REMARK   97  A    between atoms: _235  and  _236
REMARK   98  A    between atoms: _235  and  _238
REMARK   99  A    between atoms: _238  and  _239
REMARK  100  A    between atoms: _249  and  _251
REMARK  101  A    between atoms: _251  and  _252
REMARK  102  A    between atoms: _251  and  _254
REMARK  103  A    between atoms: _254  and  _255
REMARK  104  A    between atoms: _258  and  _260
REMARK  105  A    between atoms: _260  and  _261
REMARK  106  A    between atoms: _260  and  _263
REMARK  107  A    between atoms: _263  and  _264
REMARK  108  A    between atoms: _264  and  _265
REMARK  109  A    between atoms: _265  and  _266
REMARK  110  A    between atoms: _266  and  _267
REMARK  111  A    between atoms: _271  and  _273
REMARK  112  A    between atoms: _273  and  _274
REMARK  113  A    between atoms: _273  and  _276
REMARK  114  A    between atoms: _276  and  _277
REMARK  115  A    between atoms: _283  and  _285
REMARK  116  A    between atoms: _285  and  _286
REMARK  117  A    between atoms: _285  and  _288
REMARK  118  A    between atoms: _288  and  _289
REMARK  119  A    between atoms: _295  and  _297
REMARK  120  A    between atoms: _297  and  _298
REMARK  121  A    between atoms: _297  and  _300
REMARK  122  A    between atoms: _300  and  _301
REMARK  123  A    between atoms: _304  and  _306
REMARK  124  A    between atoms: _306  and  _307
REMARK  125  A    between atoms: _306  and  _309
REMARK  126  A    between atoms: _309  and  _310
REMARK  127  A    between atoms: _312  and  _314
REMARK  128  A    between atoms: _314  and  _315
REMARK  129  A    between atoms: _314  and  _317
REMARK  130  A    between atoms: _317  and  _318
REMARK  131  A    between atoms: _328  and  _330
REMARK  132  A    between atoms: _330  and  _331
REMARK  133  A    between atoms: _333  and  _335
REMARK  134  A    between atoms: _335  and  _336
REMARK  135  A    between atoms: _335  and  _338
REMARK  136  A    between atoms: _338  and  _339
REMARK  137  A    between atoms: _342  and  _344
REMARK  138  A    between atoms: _344  and  _345
REMARK  139  A    between atoms: _344  and  _347
REMARK  140  A    between atoms: _347  and  _348
REMARK  141  A    between atoms: _351  and  _353
REMARK  142  A    between atoms: _353  and  _354
REMARK  143  A    between atoms: _356  and  _358
REMARK  144  A    between atoms: _358  and  _359
REMARK  145  A    between atoms: _358  and  _361
REMARK  146  A    between atoms: _361  and  _362
REMARK  147  A    between atoms: _365  and  _367
REMARK  148  A    between atoms: _367  and  _368
REMARK  149  A    between atoms: _367  and  _370
REMARK  150  A    between atoms: _370  and  _371
REMARK  151  A    between atoms: _374  and  _376
REMARK  152  A    between atoms: _376  and  _377
REMARK  153  A    between atoms: _380  and  _382
REMARK  154  A    between atoms: _382  and  _383
REMARK  155  A    between atoms: _382  and  _385
REMARK  156  A    between atoms: _385  and  _386
REMARK  157  A    between atoms: _386  and  _387
REMARK  158  A    between atoms: _387  and  _388
REMARK  159  A    between atoms: _397  and  _399
REMARK  160  A    between atoms: _399  and  _400
REMARK  161  A    between atoms: _399  and  _402
REMARK  162  A    between atoms: _402  and  _403
REMARK  163  A    between atoms: _406  and  _408
REMARK  164  A    between atoms: _408  and  _409
REMARK  165  A    between atoms: _408  and  _411
REMARK  166  A    between atoms: _411  and  _412
REMARK  167  A    between atoms: _417  and  _418
REMARK  168  A    between atoms: _420  and  _422
REMARK  169  A    between atoms: _422  and  _423
REMARK  170  A    between atoms: _422  and  _425
REMARK  171  A    between atoms: _425  and  _426
REMARK  172  A    between atoms: _429  and  _431
REMARK  173  A    between atoms: _431  and  _432
REMARK  174  A    between atoms: _431  and  _434
REMARK  175  A    between atoms: _437  and  _439
REMARK  176  A    between atoms: _439  and  _440
REMARK  177  A    between atoms: _439  and  _442
REMARK  178  A    between atoms: _442  and  _443
REMARK  179  A    between atoms: _446  and  _448
REMARK  180  A    between atoms: _448  and  _449
REMARK  181  A    between atoms: _448  and  _451
REMARK  182  A    between atoms: _451  and  _452
REMARK  183  A    between atoms: _454  and  _456
REMARK  184  A    between atoms: _456  and  _457
REMARK  185  A    between atoms: _459  and  _461
REMARK  186  A    between atoms: _461  and  _462
REMARK  187  A    between atoms: _461  and  _464
REMARK  188  A    between atoms: _464  and  _465
REMARK  189  A    between atoms: _468  and  _470
REMARK  190  A    between atoms: _470  and  _471
REMARK  191  A    between atoms: _470  and  _473
REMARK  192  A    between atoms: _473  and  _474
REMARK  193  A    between atoms: _477  and  _479
REMARK  194  A    between atoms: _479  and  _480
REMARK  195  A    between atoms: _479  and  _482
REMARK  196  A    between atoms: _482  and  _483
REMARK  197  A    between atoms: _488  and  _490
REMARK  198  A    between atoms: _490  and  _491
REMARK  199  A    between atoms: _490  and  _493
REMARK  200  A    between atoms: _493  and  _494
REMARK  201  A    between atoms: _494  and  _495
REMARK  202  A    between atoms: _495  and  _496
REMARK  203  A    between atoms: _505  and  _507
REMARK  204  A    between atoms: _507  and  _508
REMARK  205  A    between atoms: _507  and  _510
REMARK  206  A    between atoms: _513  and  _515
REMARK  207  A    between atoms: _515  and  _516
REMARK  208  A    between atoms: _518  and  _520
REMARK  209  A    between atoms: _520  and  _521
REMARK  210  A    between atoms: _524  and  _526
REMARK  211  A    between atoms: _526  and  _527
REMARK  212  A    between atoms: _526  and  _529
REMARK  213  A    between atoms: _532  and  _534
REMARK  214  A    between atoms: _534  and  _535
REMARK  215  A    between atoms: _534  and  _537
REMARK  216  A    between atoms: _537  and  _538
REMARK  217  A    between atoms: _538  and  _539
REMARK                            x       y       z     vdW  Elec       q    Type
REMARK                         _______ _______ _______ _____ _____    ______ ____
ROOT
ATOM      1  O   HOH     1      21.369  11.143  27.761  0.00  0.00    +0.000 OA
ENDROOT
TORSDOF 0
REMARK  Name = ../refined-set-2016/4h3g/4h3g_pocket.pdb
REMARK  217 active torsions:
REMARK  status: ('A' for Active; 'I' for Inactive)
REMARK    1  A    between atoms: _1  and  _3
REMARK    2  A    between atoms: _3  and  _4
REMARK    3  A    between atoms: _3  and  _6
REMARK    4  A    between atoms: _6  and  _7
REMARK    5  A    between atoms: _7  and  _8
REMARK    6  A    between atoms: _8  and  _9
REMARK    7  A    between atoms: _9  and  _10
REMARK    8  A    between atoms: _14  and  _16
REMARK    9  A    between atoms: _16  and  _17
REMARK   10  A    between atoms: _16  and  _19
REMARK   11  A    between atoms: _19  and  _20
REMARK   12  A    between atoms: _22  and  _24
REMARK   13  A    between atoms: _24  and  _25
REMARK   14  A    between atoms: _27  and  _29
REMARK   15  A    between atoms: _29  and  _30
REMARK   16  A    between atoms: _29  and  _32
REMARK   17  A    between atoms: _32  and  _33
REMARK   18  A    between atoms: _33  and  _34
REMARK   19  A    between atoms: _39  and  _41
REMARK   20  A    between atoms: _41  and  _42
REMARK   21  A    between atoms: _44  and  _46
REMARK   22  A    between atoms: _46  and  _47
REMARK   23  A    between atoms: _46  and  _49
REMARK   24  A    between atoms: _49  and  _50
REMARK   25  A    between atoms: _55  and  _56
REMARK   26  A    between atoms: _58  and  _60
REMARK   27  A    between atoms: _60  and  _61
REMARK   28  A    between atoms: _60  and  _63
REMARK   29  A    between atoms: _63  and  _64
REMARK   30  A    between atoms: _67  and  _69
REMARK   31  A    between atoms: _69  and  _70
REMARK   32  A    between atoms: _69  and  _72
REMARK   33  A    between atoms: _75  and  _77
REMARK   34  A    between atoms: _77  and  _78
REMARK   35  A    between atoms: _77  and  _80
REMARK   36  A    between atoms: _80  and  _81
REMARK   37  A    between atoms: _84  and  _86
REMARK   38  A    between atoms: _86  and  _87
REMARK   39  A    between atoms: _86  and  _89
REMARK   40  A    between atoms: _89  and  _90
REMARK   41  A    between atoms: _93  and  _95
REMARK   42  A    between atoms: _95  and  _96
REMARK   43  A    between atoms: _98  and  _100
REMARK   44  A    between atoms: _100  and  _101
REMARK   45  A    between atoms: _100  and  _103
REMARK   46  A    between atoms: _103  and  _104
REMARK   47  A    between atoms: _106  and  _108
REMARK   48  A    between atoms: _108  and  _109
REMARK   49  A    between atoms: _108  and  _111
REMARK   50  A    between atoms: _111  and  _112
REMARK   51  A    between atoms: _114  and  _116
REMARK   52  A    between atoms: _116  and  _117
REMARK   53  A    between atoms: _116  and  _119
REMARK   54  A    between atoms: _119  and  _120
REMARK   55  A    between atoms: _125  and  _127
REMARK   56  A    between atoms: _127  and  _128
REMARK   57  A    between atoms: _127  and  _130
REMARK   58  A    between atoms: _130  and  _131
REMARK   59  A    between atoms: _137  and  _139
REMARK   60  A    between atoms: _139  and  _140
REMARK   61  A    between atoms: _143  and  _145
REMARK   62  A    between atoms: _145  and  _146
REMARK   63  A    between atoms: _145  and  _148
REMARK   64  A    between atoms: _151  and  _153
REMARK   65  A    between atoms: _153  and  _154
REMARK   66  A    between atoms: _153  and  _156
REMARK   67  A    between atoms: _156  and  _157
REMARK   68  A    between atoms: _162  and  _163
REMARK   69  A    between atoms: _165  and  _167
REMARK   70  A    between atoms: _167  and  _168
REMARK   71  A    between atoms: _167  and  _170
REMARK   72  A    between atoms: _174  and  _175
REMARK   73  A    between atoms: _180  and  _182
REMARK   74  A    between atoms: _182  and  _183
REMARK   75  A    between atoms: _182  and  _185
REMARK   76  A    between atoms: _185  and  _186
REMARK   77  A    between atoms: _191  and  _192
REMARK   78  A    between atoms: _194  and  _196
REMARK   79  A    between atoms: _196  and  _197
REMARK   80  A    between atoms: _196  and  _199
REMARK   81  A    between atoms: _199  and  _200
REMARK   82  A    between atoms: _203  and  _205
REMARK   83  A    between atoms: _205  and  _206
REMARK   84  A    between atoms: _205  and  _208
REMARK   85  A    between atoms: _208  and  _209
REMARK   86  A    between atoms: _209  and  _210
REMARK   87  A    between atoms: _215  and  _217
REMARK   88  A    between atoms: _217  and  _218
REMARK   89  A    between atoms: _220  and  _222
REMARK   90  A    between atoms: _222  and  _223
REMARK   91  A    between atoms: _222  and  _225
REMARK   92  A    between atoms: _225  and  _226
REMARK   93  A    between atoms: _226  and  _227
REMARK   94  A    between atoms: _227  and  _228
REMARK   95  A    between atoms: _228  and  _229
REMARK   96  A    between atoms: _233  and  _235
REMARK   97  A    between atoms: _235  and  _236
REMARK   98  A    between atoms: _235  and  _238
REMARK   99  A    between atoms: _238  and  _239
REMARK  100  A    between atoms: _249  and  _251
REMARK  101  A    between atoms: _251  and  _252
REMARK  102  A    between atoms: _251  and  _254
REMARK  103  A    between atoms: _254  and  _255
REMARK  104  A    between atoms: _258  and  _260
REMARK  105  A    between atoms: _260  and  _261
REMARK  106  A    between atoms: _260  and  _263
REMARK  107  A    between atoms: _263  and  _264
REMARK  108  A    between atoms: _264  and  _265
REMARK  109  A    between atoms: _265  and  _266
REMARK  110  A    between atoms: _266  and  _267
REMARK  111  A    between atoms: _271  and  _273
REMARK  112  A    between atoms: _273  and  _274
REMARK  113  A    between atoms: _273  and  _276
REMARK  114  A    between atoms: _276  and  _277
REMARK  115  A    between atoms: _283  and  _285
REMARK  116  A    between atoms: _285  and  _286
REMARK  117  A    between atoms: _285  and  _288
REMARK  118  A    between atoms: _288  and  _289
REMARK  119  A    between atoms: _295  and  _297
REMARK  120  A    between atoms: _297  and  _298
REMARK  121  A    between atoms: _297  and  _300
REMARK  122  A    between atoms: _300  and  _301
REMARK  123  A    between atoms: _304  and  _306
REMARK  124  A    between atoms: _306  and  _307
REMARK  125  A    between atoms: _306  and  _309
REMARK  126  A    between atoms: _309  and  _310
REMARK  127  A    between atoms: _312  and  _314
REMARK  128  A    between atoms: _314  and  _315
REMARK  129  A    between atoms: _314  and  _317
REMARK  130  A    between atoms: _317  and  _318
REMARK  131  A    between atoms: _328  and  _330
REMARK  132  A    between atoms: _330  and  _331
REMARK  133  A    between atoms: _333  and  _335
REMARK  134  A    between atoms: _335  and  _336
REMARK  135  A    between atoms: _335  and  _338
REMARK  136  A    between atoms: _338  and  _339
REMARK  137  A    between atoms: _342  and  _344
REMARK  138  A    between atoms: _344  and  _345
REMARK  139  A    between atoms: _344  and  _347
REMARK  140  A    between atoms: _347  and  _348
REMARK  141  A    between atoms: _351  and  _353
REMARK  142  A    between atoms: _353  and  _354
REMARK  143  A    between atoms: _356  and  _358
REMARK  144  A    between atoms: _358  and  _359
REMARK  145  A    between atoms: _358  and  _361
REMARK  146  A    between atoms: _361  and  _362
REMARK  147  A    between atoms: _365  and  _367
REMARK  148  A    between atoms: _367  and  _368
REMARK  149  A    between atoms: _367  and  _370
REMARK  150  A    between atoms: _370  and  _371
REMARK  151  A    between atoms: _374  and  _376
REMARK  152  A    between atoms: _376  and  _377
REMARK  153  A    between atoms: _380  and  _382
REMARK  154  A    between atoms: _382  and  _383
REMARK  155  A    between atoms: _382  and  _385
REMARK  156  A    between atoms: _385  and  _386
REMARK  157  A    between atoms: _386  and  _387
REMARK  158  A    between atoms: _387  and  _388
REMARK  159  A    between atoms: _397  and  _399
REMARK  160  A    between atoms: _399  and  _400
REMARK  161  A    between atoms: _399  and  _402
REMARK  162  A    between atoms: _402  and  _403
REMARK  163  A    between atoms: _406  and  _408
REMARK  164  A    between atoms: _408  and  _409
REMARK  165  A    between atoms: _408  and  _411
REMARK  166  A    between atoms: _411  and  _412
REMARK  167  A    between atoms: _417  and  _418
REMARK  168  A    between atoms: _420  and  _422
REMARK  169  A    between atoms: _422  and  _423
REMARK  170  A    between atoms: _422  and  _425
REMARK  171  A    between atoms: _425  and  _426
REMARK  172  A    between atoms: _429  and  _431
REMARK  173  A    between atoms: _431  and  _432
REMARK  174  A    between atoms: _431  and  _434
REMARK  175  A    between atoms: _437  and  _439
REMARK  176  A    between atoms: _439  and  _440
REMARK  177  A    between atoms: _439  and  _442
REMARK  178  A    between atoms: _442  and  _443
REMARK  179  A    between atoms: _446  and  _448
REMARK  180  A    between atoms: _448  and  _449
REMARK  181  A    between atoms: _448  and  _451
REMARK  182  A    between atoms: _451  and  _452
REMARK  183  A    between atoms: _454  and  _456
REMARK  184  A    between atoms: _456  and  _457
REMARK  185  A    between atoms: _459  and  _461
REMARK  186  A    between atoms: _461  and  _462
REMARK  187  A    between atoms: _461  and  _464
REMARK  188  A    between atoms: _464  and  _465
REMARK  189  A    between atoms: _468  and  _470
REMARK  190  A    between atoms: _470  and  _471
REMARK  191  A    between atoms: _470  and  _473
REMARK  192  A    between atoms: _473  and  _474
REMARK  193  A    between atoms: _477  and  _479
REMARK  194  A    between atoms: _479  and  _480
REMARK  195  A    between atoms: _479  and  _482
REMARK  196  A    between atoms: _482  and  _483
REMARK  197  A    between atoms: _488  and  _490
REMARK  198  A    between atoms: _490  and  _491
REMARK  199  A    between atoms: _490  and  _493
REMARK  200  A    between atoms: _493  and  _494
REMARK  201  A    between atoms: _494  and  _495
REMARK  202  A    between atoms: _495  and  _496
REMARK  203  A    between atoms: _505  and  _507
REMARK  204  A    between atoms: _507  and  _508
REMARK  205  A    between atoms: _507  and  _510
REMARK  206  A    between atoms: _513  and  _515
REMARK  207  A    between atoms: _515  and  _516
REMARK  208  A    between atoms: _518  and  _520
REMARK  209  A    between atoms: _520  and  _521
REMARK  210  A    between atoms: _524  and  _526
REMARK  211  A    between atoms: _526  and  _527
REMARK  212  A    between atoms: _526  and  _529
REMARK  213  A    between atoms: _532  and  _534
REMARK  214  A    between atoms: _534  and  _535
REMARK  215  A    between atoms: _534  and  _537
REMARK  216  A    between atoms: _537  and  _538
REMARK  217  A    between atoms: _538  and  _539
REMARK                            x       y       z     vdW  Elec       q    Type
REMARK                         _______ _______ _______ _____ _____    ______ ____
ROOT
ATOM      1  O   HOH     1      35.483  11.160  27.855  0.00  0.00    +0.000 OA
ENDROOT
TORSDOF 0
REMARK  Name = ../refined-set-2016/4h3g/4h3g_pocket.pdb
REMARK  217 active torsions:
REMARK  status: ('A' for Active; 'I' for Inactive)
REMARK    1  A    between atoms: _1  and  _3
REMARK    2  A    between atoms: _3  and  _4
REMARK    3  A    between atoms: _3  and  _6
REMARK    4  A    between atoms: _6  and  _7
REMARK    5  A    between atoms: _7  and  _8
REMARK    6  A    between atoms: _8  and  _9
REMARK    7  A    between atoms: _9  and  _10
REMARK    8  A    between atoms: _14  and  _16
REMARK    9  A    between atoms: _16  and  _17
REMARK   10  A    between atoms: _16  and  _19
REMARK   11  A    between atoms: _19  and  _20
REMARK   12  A    between atoms: _22  and  _24
REMARK   13  A    between atoms: _24  and  _25
REMARK   14  A    between atoms: _27  and  _29
REMARK   15  A    between atoms: _29  and  _30
REMARK   16  A    between atoms: _29  and  _32
REMARK   17  A    between atoms: _32  and  _33
REMARK   18  A    between atoms: _33  and  _34
REMARK   19  A    between atoms: _39  and  _41
REMARK   20  A    between atoms: _41  and  _42
REMARK   21  A    between atoms: _44  and  _46
REMARK   22  A    between atoms: _46  and  _47
REMARK   23  A    between atoms: _46  and  _49
REMARK   24  A    between atoms: _49  and  _50
REMARK   25  A    between atoms: _55  and  _56
REMARK   26  A    between atoms: _58  and  _60
REMARK   27  A    between atoms: _60  and  _61
REMARK   28  A    between atoms: _60  and  _63
REMARK   29  A    between atoms: _63  and  _64
REMARK   30  A    between atoms: _67  and  _69
REMARK   31  A    between atoms: _69  and  _70
REMARK   32  A    between atoms: _69  and  _72
REMARK   33  A    between atoms: _75  and  _77
REMARK   34  A    between atoms: _77  and  _78
REMARK   35  A    between atoms: _77  and  _80
REMARK   36  A    between atoms: _80  and  _81
REMARK   37  A    between atoms: _84  and  _86
REMARK   38  A    between atoms: _86  and  _87
REMARK   39  A    between atoms: _86  and  _89
REMARK   40  A    between atoms: _89  and  _90
REMARK   41  A    between atoms: _93  and  _95
REMARK   42  A    between atoms: _95  and  _96
REMARK   43  A    between atoms: _98  and  _100
REMARK   44  A    between atoms: _100  and  _101
REMARK   45  A    between atoms: _100  and  _103
REMARK   46  A    between atoms: _103  and  _104
REMARK   47  A    between atoms: _106  and  _108
REMARK   48  A    between atoms: _108  and  _109
REMARK   49  A    between atoms: _108  and  _111
REMARK   50  A    between atoms: _111  and  _112
REMARK   51  A    between atoms: _114  and  _116
REMARK   52  A    between atoms: _116  and  _117
REMARK   53  A    between atoms: _116  and  _119
REMARK   54  A    between atoms: _119  and  _120
REMARK   55  A    between atoms: _125  and  _127
REMARK   56  A    between atoms: _127  and  _128
REMARK   57  A    between atoms: _127  and  _130
REMARK   58  A    between atoms: _130  and  _131
REMARK   59  A    between atoms: _137  and  _139
REMARK   60  A    between atoms: _139  and  _140
REMARK   61  A    between atoms: _143  and  _145
REMARK   62  A    between atoms: _145  and  _146
REMARK   63  A    between atoms: _145  and  _148
REMARK   64  A    between atoms: _151  and  _153
REMARK   65  A    between atoms: _153  and  _154
REMARK   66  A    between atoms: _153  and  _156
REMARK   67  A    between atoms: _156  and  _157
REMARK   68  A    between atoms: _162  and  _163
REMARK   69  A    between atoms: _165  and  _167
REMARK   70  A    between atoms: _167  and  _168
REMARK   71  A    between atoms: _167  and  _170
REMARK   72  A    between atoms: _174  and  _175
REMARK   73  A    between atoms: _180  and  _182
REMARK   74  A    between atoms: _182  and  _183
REMARK   75  A    between atoms: _182  and  _185
REMARK   76  A    between atoms: _185  and  _186
REMARK   77  A    between atoms: _191  and  _192
REMARK   78  A    between atoms: _194  and  _196
REMARK   79  A    between atoms: _196  and  _197
REMARK   80  A    between atoms: _196  and  _199
REMARK   81  A    between atoms: _199  and  _200
REMARK   82  A    between atoms: _203  and  _205
REMARK   83  A    between atoms: _205  and  _206
REMARK   84  A    between atoms: _205  and  _208
REMARK   85  A    between atoms: _208  and  _209
REMARK   86  A    between atoms: _209  and  _210
REMARK   87  A    between atoms: _215  and  _217
REMARK   88  A    between atoms: _217  and  _218
REMARK   89  A    between atoms: _220  and  _222
REMARK   90  A    between atoms: _222  and  _223
REMARK   91  A    between atoms: _222  and  _225
REMARK   92  A    between atoms: _225  and  _226
REMARK   93  A    between atoms: _226  and  _227
REMARK   94  A    between atoms: _227  and  _228
REMARK   95  A    between atoms: _228  and  _229
REMARK   96  A    between atoms: _233  and  _235
REMARK   97  A    between atoms: _235  and  _236
REMARK   98  A    between atoms: _235  and  _238
REMARK   99  A    between atoms: _238  and  _239
REMARK  100  A    between atoms: _249  and  _251
REMARK  101  A    between atoms: _251  and  _252
REMARK  102  A    between atoms: _251  and  _254
REMARK  103  A    between atoms: _254  and  _255
REMARK  104  A    between atoms: _258  and  _260
REMARK  105  A    between atoms: _260  and  _261
REMARK  106  A    between atoms: _260  and  _263
REMARK  107  A    between atoms: _263  and  _264
REMARK  108  A    between atoms: _264  and  _265
REMARK  109  A    between atoms: _265  and  _266
REMARK  110  A    between atoms: _266  and  _267
REMARK  111  A    between atoms: _271  and  _273
REMARK  112  A    between atoms: _273  and  _274
REMARK  113  A    between atoms: _273  and  _276
REMARK  114  A    between atoms: _276  and  _277
REMARK  115  A    between atoms: _283  and  _285
REMARK  116  A    between atoms: _285  and  _286
REMARK  117  A    between atoms: _285  and  _288
REMARK  118  A    between atoms: _288  and  _289
REMARK  119  A    between atoms: _295  and  _297
REMARK  120  A    between atoms: _297  and  _298
REMARK  121  A    between atoms: _297  and  _300
REMARK  122  A    between atoms: _300  and  _301
REMARK  123  A    between atoms: _304  and  _306
REMARK  124  A    between atoms: _306  and  _307
REMARK  125  A    between atoms: _306  and  _309
REMARK  126  A    between atoms: _309  and  _310
REMARK  127  A    between atoms: _312  and  _314
REMARK  128  A    between atoms: _314  and  _315
REMARK  129  A    between atoms: _314  and  _317
REMARK  130  A    between atoms: _317  and  _318
REMARK  131  A    between atoms: _328  and  _330
REMARK  132  A    between atoms: _330  and  _331
REMARK  133  A    between atoms: _333  and  _335
REMARK  134  A    between atoms: _335  and  _336
REMARK  135  A    between atoms: _335  and  _338
REMARK  136  A    between atoms: _338  and  _339
REMARK  137  A    between atoms: _342  and  _344
REMARK  138  A    between atoms: _344  and  _345
REMARK  139  A    between atoms: _344  and  _347
REMARK  140  A    between atoms: _347  and  _348
REMARK  141  A    between atoms: _351  and  _353
REMARK  142  A    between atoms: _353  and  _354
REMARK  143  A    between atoms: _356  and  _358
REMARK  144  A    between atoms: _358  and  _359
REMARK  145  A    between atoms: _358  and  _361
REMARK  146  A    between atoms: _361  and  _362
REMARK  147  A    between atoms: _365  and  _367
REMARK  148  A    between atoms: _367  and  _368
REMARK  149  A    between atoms: _367  and  _370
REMARK  150  A    between atoms: _370  and  _371
REMARK  151  A    between atoms: _374  and  _376
REMARK  152  A    between atoms: _376  and  _377
REMARK  153  A    between atoms: _380  and  _382
REMARK  154  A    between atoms: _382  and  _383
REMARK  155  A    between atoms: _382  and  _385
REMARK  156  A    between atoms: _385  and  _386
REMARK  157  A    between atoms: _386  and  _387
REMARK  158  A    between atoms: _387  and  _388
REMARK  159  A    between atoms: _397  and  _399
REMARK  160  A    between atoms: _399  and  _400
REMARK  161  A    between atoms: _399  and  _402
REMARK  162  A    between atoms: _402  and  _403
REMARK  163  A    between atoms: _406  and  _408
REMARK  164  A    between atoms: _408  and  _409
REMARK  165  A    between atoms: _408  and  _411
REMARK  166  A    between atoms: _411  and  _412
REMARK  167  A    between atoms: _417  and  _418
REMARK  168  A    between atoms: _420  and  _422
REMARK  169  A    between atoms: _422  and  _423
REMARK  170  A    between atoms: _422  and  _425
REMARK  171  A    between atoms: _425  and  _426
REMARK  172  A    between atoms: _429  and  _431
REMARK  173  A    between atoms: _431  and  _432
REMARK  174  A    between atoms: _431  and  _434
REMARK  175  A    between atoms: _437  and  _439
REMARK  176  A    between atoms: _439  and  _440
REMARK  177  A    between atoms: _439  and  _442
REMARK  178  A    between atoms: _442  and  _443
REMARK  179  A    between atoms: _446  and  _448
REMARK  180  A    between atoms: _448  and  _449
REMARK  181  A    between atoms: _448  and  _451
REMARK  182  A    between atoms: _451  and  _452
REMARK  183  A    between atoms: _454  and  _456
REMARK  184  A    between atoms: _456  and  _457
REMARK  185  A    between atoms: _459  and  _461
REMARK  186  A    between atoms: _461  and  _462
REMARK  187  A    between atoms: _461  and  _464
REMARK  188  A    between atoms: _464  and  _465
REMARK  189  A    between atoms: _468  and  _470
REMARK  190  A    between atoms: _470  and  _471
REMARK  191  A    between atoms: _470  and  _473
REMARK  192  A    between atoms: _473  and  _474
REMARK  193  A    between atoms: _477  and  _479
REMARK  194  A    between atoms: _479  and  _480
REMARK  195  A    between atoms: _479  and  _482
REMARK  196  A    between atoms: _482  and  _483
REMARK  197  A    between atoms: _488  and  _490
REMARK  198  A    between atoms: _490  and  _491
REMARK  199  A    between atoms: _490  and  _493
REMARK  200  A    between atoms: _493  and  _494
REMARK  201  A    between atoms: _494  and  _495
REMARK  202  A    between atoms: _495  and  _496
REMARK  203  A    between atoms: _505  and  _507
REMARK  204  A    between atoms: _507  and  _508
REMARK  205  A    between atoms: _507  and  _510
REMARK  206  A    between atoms: _513  and  _515
REMARK  207  A    between atoms: _515  and  _516
REMARK  208  A    between atoms: _518  and  _520
REMARK  209  A    between atoms: _520  and  _521
REMARK  210  A    between atoms: _524  and  _526
REMARK  211  A    between atoms: _526  and  _527
REMARK  212  A    between atoms: _526  and  _529
REMARK  213  A    between atoms: _532  and  _534
REMARK  214  A    between atoms: _534  and  _535
REMARK  215  A    between atoms: _534  and  _537
REMARK  216  A    between atoms: _537  and  _538
REMARK  217  A    between atoms: _538  and  _539
REMARK                            x       y       z     vdW  Elec       q    Type
REMARK                         _______ _______ _______ _____ _____    ______ ____
ROOT
ATOM      1  O   HOH     1      28.455   9.617  11.872  0.00  0.00    +0.000 OA
ENDROOT
TORSDOF 0
REMARK  Name = ../refined-set-2016/4h3g/4h3g_pocket.pdb
REMARK  217 active torsions:
REMARK  status: ('A' for Active; 'I' for Inactive)
REMARK    1  A    between atoms: _1  and  _3
REMARK    2  A    between atoms: _3  and  _4
REMARK    3  A    between atoms: _3  and  _6
REMARK    4  A    between atoms: _6  and  _7
REMARK    5  A    between atoms: _7  and  _8
REMARK    6  A    between atoms: _8  and  _9
REMARK    7  A    between atoms: _9  and  _10
REMARK    8  A    between atoms: _14  and  _16
REMARK    9  A    between atoms: _16  and  _17
REMARK   10  A    between atoms: _16  and  _19
REMARK   11  A    between atoms: _19  and  _20
REMARK   12  A    between atoms: _22  and  _24
REMARK   13  A    between atoms: _24  and  _25
REMARK   14  A    between atoms: _27  and  _29
REMARK   15  A    between atoms: _29  and  _30
REMARK   16  A    between atoms: _29  and  _32
REMARK   17  A    between atoms: _32  and  _33
REMARK   18  A    between atoms: _33  and  _34
REMARK   19  A    between atoms: _39  and  _41
REMARK   20  A    between atoms: _41  and  _42
REMARK   21  A    between atoms: _44  and  _46
REMARK   22  A    between atoms: _46  and  _47
REMARK   23  A    between atoms: _46  and  _49
REMARK   24  A    between atoms: _49  and  _50
REMARK   25  A    between atoms: _55  and  _56
REMARK   26  A    between atoms: _58  and  _60
REMARK   27  A    between atoms: _60  and  _61
REMARK   28  A    between atoms: _60  and  _63
REMARK   29  A    between atoms: _63  and  _64
REMARK   30  A    between atoms: _67  and  _69
REMARK   31  A    between atoms: _69  and  _70
REMARK   32  A    between atoms: _69  and  _72
REMARK   33  A    between atoms: _75  and  _77
REMARK   34  A    between atoms: _77  and  _78
REMARK   35  A    between atoms: _77  and  _80
REMARK   36  A    between atoms: _80  and  _81
REMARK   37  A    between atoms: _84  and  _86
REMARK   38  A    between atoms: _86  and  _87
REMARK   39  A    between atoms: _86  and  _89
REMARK   40  A    between atoms: _89  and  _90
REMARK   41  A    between atoms: _93  and  _95
REMARK   42  A    between atoms: _95  and  _96
REMARK   43  A    between atoms: _98  and  _100
REMARK   44  A    between atoms: _100  and  _101
REMARK   45  A    between atoms: _100  and  _103
REMARK   46  A    between atoms: _103  and  _104
REMARK   47  A    between atoms: _106  and  _108
REMARK   48  A    between atoms: _108  and  _109
REMARK   49  A    between atoms: _108  and  _111
REMARK   50  A    between atoms: _111  and  _112
REMARK   51  A    between atoms: _114  and  _116
REMARK   52  A    between atoms: _116  and  _117
REMARK   53  A    between atoms: _116  and  _119
REMARK   54  A    between atoms: _119  and  _120
REMARK   55  A    between atoms: _125  and  _127
REMARK   56  A    between atoms: _127  and  _128
REMARK   57  A    between atoms: _127  and  _130
REMARK   58  A    between atoms: _130  and  _131
REMARK   59  A    between atoms: _137  and  _139
REMARK   60  A    between atoms: _139  and  _140
REMARK   61  A    between atoms: _143  and  _145
REMARK   62  A    between atoms: _145  and  _146
REMARK   63  A    between atoms: _145  and  _148
REMARK   64  A    between atoms: _151  and  _153
REMARK   65  A    between atoms: _153  and  _154
REMARK   66  A    between atoms: _153  and  _156
REMARK   67  A    between atoms: _156  and  _157
REMARK   68  A    between atoms: _162  and  _163
REMARK   69  A    between atoms: _165  and  _167
REMARK   70  A    between atoms: _167  and  _168
REMARK   71  A    between atoms: _167  and  _170
REMARK   72  A    between atoms: _174  and  _175
REMARK   73  A    between atoms: _180  and  _182
REMARK   74  A    between atoms: _182  and  _183
REMARK   75  A    between atoms: _182  and  _185
REMARK   76  A    between atoms: _185  and  _186
REMARK   77  A    between atoms: _191  and  _192
REMARK   78  A    between atoms: _194  and  _196
REMARK   79  A    between atoms: _196  and  _197
REMARK   80  A    between atoms: _196  and  _199
REMARK   81  A    between atoms: _199  and  _200
REMARK   82  A    between atoms: _203  and  _205
REMARK   83  A    between atoms: _205  and  _206
REMARK   84  A    between atoms: _205  and  _208
REMARK   85  A    between atoms: _208  and  _209
REMARK   86  A    between atoms: _209  and  _210
REMARK   87  A    between atoms: _215  and  _217
REMARK   88  A    between atoms: _217  and  _218
REMARK   89  A    between atoms: _220  and  _222
REMARK   90  A    between atoms: _222  and  _223
REMARK   91  A    between atoms: _222  and  _225
REMARK   92  A    between atoms: _225  and  _226
REMARK   93  A    between atoms: _226  and  _227
REMARK   94  A    between atoms: _227  and  _228
REMARK   95  A    between atoms: _228  and  _229
REMARK   96  A    between atoms: _233  and  _235
REMARK   97  A    between atoms: _235  and  _236
REMARK   98  A    between atoms: _235  and  _238
REMARK   99  A    between atoms: _238  and  _239
REMARK  100  A    between atoms: _249  and  _251
REMARK  101  A    between atoms: _251  and  _252
REMARK  102  A    between atoms: _251  and  _254
REMARK  103  A    between atoms: _254  and  _255
REMARK  104  A    between atoms: _258  and  _260
REMARK  105  A    between atoms: _260  and  _261
REMARK  106  A    between atoms: _260  and  _263
REMARK  107  A    between atoms: _263  and  _264
REMARK  108  A    between atoms: _264  and  _265
REMARK  109  A    between atoms: _265  and  _266
REMARK  110  A    between atoms: _266  and  _267
REMARK  111  A    between atoms: _271  and  _273
REMARK  112  A    between atoms: _273  and  _274
REMARK  113  A    between atoms: _273  and  _276
REMARK  114  A    between atoms: _276  and  _277
REMARK  115  A    between atoms: _283  and  _285
REMARK  116  A    between atoms: _285  and  _286
REMARK  117  A    between atoms: _285  and  _288
REMARK  118  A    between atoms: _288  and  _289
REMARK  119  A    between atoms: _295  and  _297
REMARK  120  A    between atoms: _297  and  _298
REMARK  121  A    between atoms: _297  and  _300
REMARK  122  A    between atoms: _300  and  _301
REMARK  123  A    between atoms: _304  and  _306
REMARK  124  A    between atoms: _306  and  _307
REMARK  125  A    between atoms: _306  and  _309
REMARK  126  A    between atoms: _309  and  _310
REMARK  127  A    between atoms: _312  and  _314
REMARK  128  A    between atoms: _314  and  _315
REMARK  129  A    between atoms: _314  and  _317
REMARK  130  A    between atoms: _317  and  _318
REMARK  131  A    between atoms: _328  and  _330
REMARK  132  A    between atoms: _330  and  _331
REMARK  133  A    between atoms: _333  and  _335
REMARK  134  A    between atoms: _335  and  _336
REMARK  135  A    between atoms: _335  and  _338
REMARK  136  A    between atoms: _338  and  _339
REMARK  137  A    between atoms: _342  and  _344
REMARK  138  A    between atoms: _344  and  _345
REMARK  139  A    between atoms: _344  and  _347
REMARK  140  A    between atoms: _347  and  _348
REMARK  141  A    between atoms: _351  and  _353
REMARK  142  A    between atoms: _353  and  _354
REMARK  143  A    between atoms: _356  and  _358
REMARK  144  A    between atoms: _358  and  _359
REMARK  145  A    between atoms: _358  and  _361
REMARK  146  A    between atoms: _361  and  _362
REMARK  147  A    between atoms: _365  and  _367
REMARK  148  A    between atoms: _367  and  _368
REMARK  149  A    between atoms: _367  and  _370
REMARK  150  A    between atoms: _370  and  _371
REMARK  151  A    between atoms: _374  and  _376
REMARK  152  A    between atoms: _376  and  _377
REMARK  153  A    between atoms: _380  and  _382
REMARK  154  A    between atoms: _382  and  _383
REMARK  155  A    between atoms: _382  and  _385
REMARK  156  A    between atoms: _385  and  _386
REMARK  157  A    between atoms: _386  and  _387
REMARK  158  A    between atoms: _387  and  _388
REMARK  159  A    between atoms: _397  and  _399
REMARK  160  A    between atoms: _399  and  _400
REMARK  161  A    between atoms: _399  and  _402
REMARK  162  A    between atoms: _402  and  _403
REMARK  163  A    between atoms: _406  and  _408
REMARK  164  A    between atoms: _408  and  _409
REMARK  165  A    between atoms: _408  and  _411
REMARK  166  A    between atoms: _411  and  _412
REMARK  167  A    between atoms: _417  and  _418
REMARK  168  A    between atoms: _420  and  _422
REMARK  169  A    between atoms: _422  and  _423
REMARK  170  A    between atoms: _422  and  _425
REMARK  171  A    between atoms: _425  and  _426
REMARK  172  A    between atoms: _429  and  _431
REMARK  173  A    between atoms: _431  and  _432
REMARK  174  A    between atoms: _431  and  _434
REMARK  175  A    between atoms: _437  and  _439
REMARK  176  A    between atoms: _439  and  _440
REMARK  177  A    between atoms: _439  and  _442
REMARK  178  A    between atoms: _442  and  _443
REMARK  179  A    between atoms: _446  and  _448
REMARK  180  A    between atoms: _448  and  _449
REMARK  181  A    between atoms: _448  and  _451
REMARK  182  A    between atoms: _451  and  _452
REMARK  183  A    between atoms: _454  and  _456
REMARK  184  A    between atoms: _456  and  _457
REMARK  185  A    between atoms: _459  and  _461
REMARK  186  A    between atoms: _461  and  _462
REMARK  187  A    between atoms: _461  and  _464
REMARK  188  A    between atoms: _464  and  _465
REMARK  189  A    between atoms: _468  and  _470
REMARK  190  A    between atoms: _470  and  _471
REMARK  191  A    between atoms: _470  and  _473
REMARK  192  A    between atoms: _473  and  _474
REMARK  193  A    between atoms: _477  and  _479
REMARK  194  A    between atoms: _479  and  _480
REMARK  195  A    between atoms: _479  and  _482
REMARK  196  A    between atoms: _482  and  _483
REMARK  197  A    between atoms: _488  and  _490
REMARK  198  A    between atoms: _490  and  _491
REMARK  199  A    between atoms: _490  and  _493
REMARK  200  A    between atoms: _493  and  _494
REMARK  201  A    between atoms: _494  and  _495
REMARK  202  A    between atoms: _495  and  _496
REMARK  203  A    between atoms: _505  and  _507
REMARK  204  A    between atoms: _507  and  _508
REMARK  205  A    between atoms: _507  and  _510
REMARK  206  A    between atoms: _513  and  _515
REMARK  207  A    between atoms: _515  and  _516
REMARK  208  A    between atoms: _518  and  _520
REMARK  209  A    between atoms: _520  and  _521
REMARK  210  A    between atoms: _524  and  _526
REMARK  211  A    between atoms: _526  and  _527
REMARK  212  A    between atoms: _526  and  _529
REMARK  213  A    between atoms: _532  and  _534
REMARK  214  A    between atoms: _534  and  _535
REMARK  215  A    between atoms: _534  and  _537
REMARK  216  A    between atoms: _537  and  _538
REMARK  217  A    between atoms: _538  and  _539
REMARK                            x       y       z     vdW  Elec       q    Type
REMARK                         _______ _______ _______ _____ _____    ______ ____
ROOT
ATOM      1  O   HOH     1      26.163  13.529  16.421  0.00  0.00    +0.000 OA
ENDROOT
TORSDOF 0
REMARK  Name = ../refined-set-2016/4h3g/4h3g_pocket.pdb
REMARK  217 active torsions:
REMARK  status: ('A' for Active; 'I' for Inactive)
REMARK    1  A    between atoms: _1  and  _3
REMARK    2  A    between atoms: _3  and  _4
REMARK    3  A    between atoms: _3  and  _6
REMARK    4  A    between atoms: _6  and  _7
REMARK    5  A    between atoms: _7  and  _8
REMARK    6  A    between atoms: _8  and  _9
REMARK    7  A    between atoms: _9  and  _10
REMARK    8  A    between atoms: _14  and  _16
REMARK    9  A    between atoms: _16  and  _17
REMARK   10  A    between atoms: _16  and  _19
REMARK   11  A    between atoms: _19  and  _20
REMARK   12  A    between atoms: _22  and  _24
REMARK   13  A    between atoms: _24  and  _25
REMARK   14  A    between atoms: _27  and  _29
REMARK   15  A    between atoms: _29  and  _30
REMARK   16  A    between atoms: _29  and  _32
REMARK   17  A    between atoms: _32  and  _33
REMARK   18  A    between atoms: _33  and  _34
REMARK   19  A    between atoms: _39  and  _41
REMARK   20  A    between atoms: _41  and  _42
REMARK   21  A    between atoms: _44  and  _46
REMARK   22  A    between atoms: _46  and  _47
REMARK   23  A    between atoms: _46  and  _49
REMARK   24  A    between atoms: _49  and  _50
REMARK   25  A    between atoms: _55  and  _56
REMARK   26  A    between atoms: _58  and  _60
REMARK   27  A    between atoms: _60  and  _61
REMARK   28  A    between atoms: _60  and  _63
REMARK   29  A    between atoms: _63  and  _64
REMARK   30  A    between atoms: _67  and  _69
REMARK   31  A    between atoms: _69  and  _70
REMARK   32  A    between atoms: _69  and  _72
REMARK   33  A    between atoms: _75  and  _77
REMARK   34  A    between atoms: _77  and  _78
REMARK   35  A    between atoms: _77  and  _80
REMARK   36  A    between atoms: _80  and  _81
REMARK   37  A    between atoms: _84  and  _86
REMARK   38  A    between atoms: _86  and  _87
REMARK   39  A    between atoms: _86  and  _89
REMARK   40  A    between atoms: _89  and  _90
REMARK   41  A    between atoms: _93  and  _95
REMARK   42  A    between atoms: _95  and  _96
REMARK   43  A    between atoms: _98  and  _100
REMARK   44  A    between atoms: _100  and  _101
REMARK   45  A    between atoms: _100  and  _103
REMARK   46  A    between atoms: _103  and  _104
REMARK   47  A    between atoms: _106  and  _108
REMARK   48  A    between atoms: _108  and  _109
REMARK   49  A    between atoms: _108  and  _111
REMARK   50  A    between atoms: _111  and  _112
REMARK   51  A    between atoms: _114  and  _116
REMARK   52  A    between atoms: _116  and  _117
REMARK   53  A    between atoms: _116  and  _119
REMARK   54  A    between atoms: _119  and  _120
REMARK   55  A    between atoms: _125  and  _127
REMARK   56  A    between atoms: _127  and  _128
REMARK   57  A    between atoms: _127  and  _130
REMARK   58  A    between atoms: _130  and  _131
REMARK   59  A    between atoms: _137  and  _139
REMARK   60  A    between atoms: _139  and  _140
REMARK   61  A    between atoms: _143  and  _145
REMARK   62  A    between atoms: _145  and  _146
REMARK   63  A    between atoms: _145  and  _148
REMARK   64  A    between atoms: _151  and  _153
REMARK   65  A    between atoms: _153  and  _154
REMARK   66  A    between atoms: _153  and  _156
REMARK   67  A    between atoms: _156  and  _157
REMARK   68  A    between atoms: _162  and  _163
REMARK   69  A    between atoms: _165  and  _167
REMARK   70  A    between atoms: _167  and  _168
REMARK   71  A    between atoms: _167  and  _170
REMARK   72  A    between atoms: _174  and  _175
REMARK   73  A    between atoms: _180  and  _182
REMARK   74  A    between atoms: _182  and  _183
REMARK   75  A    between atoms: _182  and  _185
REMARK   76  A    between atoms: _185  and  _186
REMARK   77  A    between atoms: _191  and  _192
REMARK   78  A    between atoms: _194  and  _196
REMARK   79  A    between atoms: _196  and  _197
REMARK   80  A    between atoms: _196  and  _199
REMARK   81  A    between atoms: _199  and  _200
REMARK   82  A    between atoms: _203  and  _205
REMARK   83  A    between atoms: _205  and  _206
REMARK   84  A    between atoms: _205  and  _208
REMARK   85  A    between atoms: _208  and  _209
REMARK   86  A    between atoms: _209  and  _210
REMARK   87  A    between atoms: _215  and  _217
REMARK   88  A    between atoms: _217  and  _218
REMARK   89  A    between atoms: _220  and  _222
REMARK   90  A    between atoms: _222  and  _223
REMARK   91  A    between atoms: _222  and  _225
REMARK   92  A    between atoms: _225  and  _226
REMARK   93  A    between atoms: _226  and  _227
REMARK   94  A    between atoms: _227  and  _228
REMARK   95  A    between atoms: _228  and  _229
REMARK   96  A    between atoms: _233  and  _235
REMARK   97  A    between atoms: _235  and  _236
REMARK   98  A    between atoms: _235  and  _238
REMARK   99  A    between atoms: _238  and  _239
REMARK  100  A    between atoms: _249  and  _251
REMARK  101  A    between atoms: _251  and  _252
REMARK  102  A    between atoms: _251  and  _254
REMARK  103  A    between atoms: _254  and  _255
REMARK  104  A    between atoms: _258  and  _260
REMARK  105  A    between atoms: _260  and  _261
REMARK  106  A    between atoms: _260  and  _263
REMARK  107  A    between atoms: _263  and  _264
REMARK  108  A    between atoms: _264  and  _265
REMARK  109  A    between atoms: _265  and  _266
REMARK  110  A    between atoms: _266  and  _267
REMARK  111  A    between atoms: _271  and  _273
REMARK  112  A    between atoms: _273  and  _274
REMARK  113  A    between atoms: _273  and  _276
REMARK  114  A    between atoms: _276  and  _277
REMARK  115  A    between atoms: _283  and  _285
REMARK  116  A    between atoms: _285  and  _286
REMARK  117  A    between atoms: _285  and  _288
REMARK  118  A    between atoms: _288  and  _289
REMARK  119  A    between atoms: _295  and  _297
REMARK  120  A    between atoms: _297  and  _298
REMARK  121  A    between atoms: _297  and  _300
REMARK  122  A    between atoms: _300  and  _301
REMARK  123  A    between atoms: _304  and  _306
REMARK  124  A    between atoms: _306  and  _307
REMARK  125  A    between atoms: _306  and  _309
REMARK  126  A    between atoms: _309  and  _310
REMARK  127  A    between atoms: _312  and  _314
REMARK  128  A    between atoms: _314  and  _315
REMARK  129  A    between atoms: _314  and  _317
REMARK  130  A    between atoms: _317  and  _318
REMARK  131  A    between atoms: _328  and  _330
REMARK  132  A    between atoms: _330  and  _331
REMARK  133  A    between atoms: _333  and  _335
REMARK  134  A    between atoms: _335  and  _336
REMARK  135  A    between atoms: _335  and  _338
REMARK  136  A    between atoms: _338  and  _339
REMARK  137  A    between atoms: _342  and  _344
REMARK  138  A    between atoms: _344  and  _345
REMARK  139  A    between atoms: _344  and  _347
REMARK  140  A    between atoms: _347  and  _348
REMARK  141  A    between atoms: _351  and  _353
REMARK  142  A    between atoms: _353  and  _354
REMARK  143  A    between atoms: _356  and  _358
REMARK  144  A    between atoms: _358  and  _359
REMARK  145  A    between atoms: _358  and  _361
REMARK  146  A    between atoms: _361  and  _362
REMARK  147  A    between atoms: _365  and  _367
REMARK  148  A    between atoms: _367  and  _368
REMARK  149  A    between atoms: _367  and  _370
REMARK  150  A    between atoms: _370  and  _371
REMARK  151  A    between atoms: _374  and  _376
REMARK  152  A    between atoms: _376  and  _377
REMARK  153  A    between atoms: _380  and  _382
REMARK  154  A    between atoms: _382  and  _383
REMARK  155  A    between atoms: _382  and  _385
REMARK  156  A    between atoms: _385  and  _386
REMARK  157  A    between atoms: _386  and  _387
REMARK  158  A    between atoms: _387  and  _388
REMARK  159  A    between atoms: _397  and  _399
REMARK  160  A    between atoms: _399  and  _400
REMARK  161  A    between atoms: _399  and  _402
REMARK  162  A    between atoms: _402  and  _403
REMARK  163  A    between atoms: _406  and  _408
REMARK  164  A    between atoms: _408  and  _409
REMARK  165  A    between atoms: _408  and  _411
REMARK  166  A    between atoms: _411  and  _412
REMARK  167  A    between atoms: _417  and  _418
REMARK  168  A    between atoms: _420  and  _422
REMARK  169  A    between atoms: _422  and  _423
REMARK  170  A    between atoms: _422  and  _425
REMARK  171  A    between atoms: _425  and  _426
REMARK  172  A    between atoms: _429  and  _431
REMARK  173  A    between atoms: _431  and  _432
REMARK  174  A    between atoms: _431  and  _434
REMARK  175  A    between atoms: _437  and  _439
REMARK  176  A    between atoms: _439  and  _440
REMARK  177  A    between atoms: _439  and  _442
REMARK  178  A    between atoms: _442  and  _443
REMARK  179  A    between atoms: _446  and  _448
REMARK  180  A    between atoms: _448  and  _449
REMARK  181  A    between atoms: _448  and  _451
REMARK  182  A    between atoms: _451  and  _452
REMARK  183  A    between atoms: _454  and  _456
REMARK  184  A    between atoms: _456  and  _457
REMARK  185  A    between atoms: _459  and  _461
REMARK  186  A    between atoms: _461  and  _462
REMARK  187  A    between atoms: _461  and  _464
REMARK  188  A    between atoms: _464  and  _465
REMARK  189  A    between atoms: _468  and  _470
REMARK  190  A    between atoms: _470  and  _471
REMARK  191  A    between atoms: _470  and  _473
REMARK  192  A    between atoms: _473  and  _474
REMARK  193  A    between atoms: _477  and  _479
REMARK  194  A    between atoms: _479  and  _480
REMARK  195  A    between atoms: _479  and  _482
REMARK  196  A    between atoms: _482  and  _483
REMARK  197  A    between atoms: _488  and  _490
REMARK  198  A    between atoms: _490  and  _491
REMARK  199  A    between atoms: _490  and  _493
REMARK  200  A    between atoms: _493  and  _494
REMARK  201  A    between atoms: _494  and  _495
REMARK  202  A    between atoms: _495  and  _496
REMARK  203  A    between atoms: _505  and  _507
REMARK  204  A    between atoms: _507  and  _508
REMARK  205  A    between atoms: _507  and  _510
REMARK  206  A    between atoms: _513  and  _515
REMARK  207  A    between atoms: _515  and  _516
REMARK  208  A    between atoms: _518  and  _520
REMARK  209  A    between atoms: _520  and  _521
REMARK  210  A    between atoms: _524  and  _526
REMARK  211  A    between atoms: _526  and  _527
REMARK  212  A    between atoms: _526  and  _529
REMARK  213  A    between atoms: _532  and  _534
REMARK  214  A    between atoms: _534  and  _535
REMARK  215  A    between atoms: _534  and  _537
REMARK  216  A    between atoms: _537  and  _538
REMARK  217  A    between atoms: _538  and  _539
REMARK                            x       y       z     vdW  Elec       q    Type
REMARK                         _______ _______ _______ _____ _____    ______ ____
ROOT
ATOM      1  O   HOH     1      31.178   7.576  24.494  0.00  0.00    +0.000 OA
ENDROOT
TORSDOF 0
REMARK  Name = ../refined-set-2016/4h3g/4h3g_pocket.pdb
REMARK  217 active torsions:
REMARK  status: ('A' for Active; 'I' for Inactive)
REMARK    1  A    between atoms: _1  and  _3
REMARK    2  A    between atoms: _3  and  _4
REMARK    3  A    between atoms: _3  and  _6
REMARK    4  A    between atoms: _6  and  _7
REMARK    5  A    between atoms: _7  and  _8
REMARK    6  A    between atoms: _8  and  _9
REMARK    7  A    between atoms: _9  and  _10
REMARK    8  A    between atoms: _14  and  _16
REMARK    9  A    between atoms: _16  and  _17
REMARK   10  A    between atoms: _16  and  _19
REMARK   11  A    between atoms: _19  and  _20
REMARK   12  A    between atoms: _22  and  _24
REMARK   13  A    between atoms: _24  and  _25
REMARK   14  A    between atoms: _27  and  _29
REMARK   15  A    between atoms: _29  and  _30
REMARK   16  A    between atoms: _29  and  _32
REMARK   17  A    between atoms: _32  and  _33
REMARK   18  A    between atoms: _33  and  _34
REMARK   19  A    between atoms: _39  and  _41
REMARK   20  A    between atoms: _41  and  _42
REMARK   21  A    between atoms: _44  and  _46
REMARK   22  A    between atoms: _46  and  _47
REMARK   23  A    between atoms: _46  and  _49
REMARK   24  A    between atoms: _49  and  _50
REMARK   25  A    between atoms: _55  and  _56
REMARK   26  A    between atoms: _58  and  _60
REMARK   27  A    between atoms: _60  and  _61
REMARK   28  A    between atoms: _60  and  _63
REMARK   29  A    between atoms: _63  and  _64
REMARK   30  A    between atoms: _67  and  _69
REMARK   31  A    between atoms: _69  and  _70
REMARK   32  A    between atoms: _69  and  _72
REMARK   33  A    between atoms: _75  and  _77
REMARK   34  A    between atoms: _77  and  _78
REMARK   35  A    between atoms: _77  and  _80
REMARK   36  A    between atoms: _80  and  _81
REMARK   37  A    between atoms: _84  and  _86
REMARK   38  A    between atoms: _86  and  _87
REMARK   39  A    between atoms: _86  and  _89
REMARK   40  A    between atoms: _89  and  _90
REMARK   41  A    between atoms: _93  and  _95
REMARK   42  A    between atoms: _95  and  _96
REMARK   43  A    between atoms: _98  and  _100
REMARK   44  A    between atoms: _100  and  _101
REMARK   45  A    between atoms: _100  and  _103
REMARK   46  A    between atoms: _103  and  _104
REMARK   47  A    between atoms: _106  and  _108
REMARK   48  A    between atoms: _108  and  _109
REMARK   49  A    between atoms: _108  and  _111
REMARK   50  A    between atoms: _111  and  _112
REMARK   51  A    between atoms: _114  and  _116
REMARK   52  A    between atoms: _116  and  _117
REMARK   53  A    between atoms: _116  and  _119
REMARK   54  A    between atoms: _119  and  _120
REMARK   55  A    between atoms: _125  and  _127
REMARK   56  A    between atoms: _127  and  _128
REMARK   57  A    between atoms: _127  and  _130
REMARK   58  A    between atoms: _130  and  _131
REMARK   59  A    between atoms: _137  and  _139
REMARK   60  A    between atoms: _139  and  _140
REMARK   61  A    between atoms: _143  and  _145
REMARK   62  A    between atoms: _145  and  _146
REMARK   63  A    between atoms: _145  and  _148
REMARK   64  A    between atoms: _151  and  _153
REMARK   65  A    between atoms: _153  and  _154
REMARK   66  A    between atoms: _153  and  _156
REMARK   67  A    between atoms: _156  and  _157
REMARK   68  A    between atoms: _162  and  _163
REMARK   69  A    between atoms: _165  and  _167
REMARK   70  A    between atoms: _167  and  _168
REMARK   71  A    between atoms: _167  and  _170
REMARK   72  A    between atoms: _174  and  _175
REMARK   73  A    between atoms: _180  and  _182
REMARK   74  A    between atoms: _182  and  _183
REMARK   75  A    between atoms: _182  and  _185
REMARK   76  A    between atoms: _185  and  _186
REMARK   77  A    between atoms: _191  and  _192
REMARK   78  A    between atoms: _194  and  _196
REMARK   79  A    between atoms: _196  and  _197
REMARK   80  A    between atoms: _196  and  _199
REMARK   81  A    between atoms: _199  and  _200
REMARK   82  A    between atoms: _203  and  _205
REMARK   83  A    between atoms: _205  and  _206
REMARK   84  A    between atoms: _205  and  _208
REMARK   85  A    between atoms: _208  and  _209
REMARK   86  A    between atoms: _209  and  _210
REMARK   87  A    between atoms: _215  and  _217
REMARK   88  A    between atoms: _217  and  _218
REMARK   89  A    between atoms: _220  and  _222
REMARK   90  A    between atoms: _222  and  _223
REMARK   91  A    between atoms: _222  and  _225
REMARK   92  A    between atoms: _225  and  _226
REMARK   93  A    between atoms: _226  and  _227
REMARK   94  A    between atoms: _227  and  _228
REMARK   95  A    between atoms: _228  and  _229
REMARK   96  A    between atoms: _233  and  _235
REMARK   97  A    between atoms: _235  and  _236
REMARK   98  A    between atoms: _235  and  _238
REMARK   99  A    between atoms: _238  and  _239
REMARK  100  A    between atoms: _249  and  _251
REMARK  101  A    between atoms: _251  and  _252
REMARK  102  A    between atoms: _251  and  _254
REMARK  103  A    between atoms: _254  and  _255
REMARK  104  A    between atoms: _258  and  _260
REMARK  105  A    between atoms: _260  and  _261
REMARK  106  A    between atoms: _260  and  _263
REMARK  107  A    between atoms: _263  and  _264
REMARK  108  A    between atoms: _264  and  _265
REMARK  109  A    between atoms: _265  and  _266
REMARK  110  A    between atoms: _266  and  _267
REMARK  111  A    between atoms: _271  and  _273
REMARK  112  A    between atoms: _273  and  _274
REMARK  113  A    between atoms: _273  and  _276
REMARK  114  A    between atoms: _276  and  _277
REMARK  115  A    between atoms: _283  and  _285
REMARK  116  A    between atoms: _285  and  _286
REMARK  117  A    between atoms: _285  and  _288
REMARK  118  A    between atoms: _288  and  _289
REMARK  119  A    between atoms: _295  and  _297
REMARK  120  A    between atoms: _297  and  _298
REMARK  121  A    between atoms: _297  and  _300
REMARK  122  A    between atoms: _300  and  _301
REMARK  123  A    between atoms: _304  and  _306
REMARK  124  A    between atoms: _306  and  _307
REMARK  125  A    between atoms: _306  and  _309
REMARK  126  A    between atoms: _309  and  _310
REMARK  127  A    between atoms: _312  and  _314
REMARK  128  A    between atoms: _314  and  _315
REMARK  129  A    between atoms: _314  and  _317
REMARK  130  A    between atoms: _317  and  _318
REMARK  131  A    between atoms: _328  and  _330
REMARK  132  A    between atoms: _330  and  _331
REMARK  133  A    between atoms: _333  and  _335
REMARK  134  A    between atoms: _335  and  _336
REMARK  135  A    between atoms: _335  and  _338
REMARK  136  A    between atoms: _338  and  _339
REMARK  137  A    between atoms: _342  and  _344
REMARK  138  A    between atoms: _344  and  _345
REMARK  139  A    between atoms: _344  and  _347
REMARK  140  A    between atoms: _347  and  _348
REMARK  141  A    between atoms: _351  and  _353
REMARK  142  A    between atoms: _353  and  _354
REMARK  143  A    between atoms: _356  and  _358
REMARK  144  A    between atoms: _358  and  _359
REMARK  145  A    between atoms: _358  and  _361
REMARK  146  A    between atoms: _361  and  _362
REMARK  147  A    between atoms: _365  and  _367
REMARK  148  A    between atoms: _367  and  _368
REMARK  149  A    between atoms: _367  and  _370
REMARK  150  A    between atoms: _370  and  _371
REMARK  151  A    between atoms: _374  and  _376
REMARK  152  A    between atoms: _376  and  _377
REMARK  153  A    between atoms: _380  and  _382
REMARK  154  A    between atoms: _382  and  _383
REMARK  155  A    between atoms: _382  and  _385
REMARK  156  A    between atoms: _385  and  _386
REMARK  157  A    between atoms: _386  and  _387
REMARK  158  A    between atoms: _387  and  _388
REMARK  159  A    between atoms: _397  and  _399
REMARK  160  A    between atoms: _399  and  _400
REMARK  161  A    between atoms: _399  and  _402
REMARK  162  A    between atoms: _402  and  _403
REMARK  163  A    between atoms: _406  and  _408
REMARK  164  A    between atoms: _408  and  _409
REMARK  165  A    between atoms: _408  and  _411
REMARK  166  A    between atoms: _411  and  _412
REMARK  167  A    between atoms: _417  and  _418
REMARK  168  A    between atoms: _420  and  _422
REMARK  169  A    between atoms: _422  and  _423
REMARK  170  A    between atoms: _422  and  _425
REMARK  171  A    between atoms: _425  and  _426
REMARK  172  A    between atoms: _429  and  _431
REMARK  173  A    between atoms: _431  and  _432
REMARK  174  A    between atoms: _431  and  _434
REMARK  175  A    between atoms: _437  and  _439
REMARK  176  A    between atoms: _439  and  _440
REMARK  177  A    between atoms: _439  and  _442
REMARK  178  A    between atoms: _442  and  _443
REMARK  179  A    between atoms: _446  and  _448
REMARK  180  A    between atoms: _448  and  _449
REMARK  181  A    between atoms: _448  and  _451
REMARK  182  A    between atoms: _451  and  _452
REMARK  183  A    between atoms: _454  and  _456
REMARK  184  A    between atoms: _456  and  _457
REMARK  185  A    between atoms: _459  and  _461
REMARK  186  A    between atoms: _461  and  _462
REMARK  187  A    between atoms: _461  and  _464
REMARK  188  A    between atoms: _464  and  _465
REMARK  189  A    between atoms: _468  and  _470
REMARK  190  A    between atoms: _470  and  _471
REMARK  191  A    between atoms: _470  and  _473
REMARK  192  A    between atoms: _473  and  _474
REMARK  193  A    between atoms: _477  and  _479
REMARK  194  A    between atoms: _479  and  _480
REMARK  195  A    between atoms: _479  and  _482
REMARK  196  A    between atoms: _482  and  _483
REMARK  197  A    between atoms: _488  and  _490
REMARK  198  A    between atoms: _490  and  _491
REMARK  199  A    between atoms: _490  and  _493
REMARK  200  A    between atoms: _493  and  _494
REMARK  201  A    between atoms: _494  and  _495
REMARK  202  A    between atoms: _495  and  _496
REMARK  203  A    between atoms: _505  and  _507
REMARK  204  A    between atoms: _507  and  _508
REMARK  205  A    between atoms: _507  and  _510
REMARK  206  A    between atoms: _513  and  _515
REMARK  207  A    between atoms: _515  and  _516
REMARK  208  A    between atoms: _518  and  _520
REMARK  209  A    between atoms: _520  and  _521
REMARK  210  A    between atoms: _524  and  _526
REMARK  211  A    between atoms: _526  and  _527
REMARK  212  A    between atoms: _526  and  _529
REMARK  213  A    between atoms: _532  and  _534
REMARK  214  A    between atoms: _534  and  _535
REMARK  215  A    between atoms: _534  and  _537
REMARK  216  A    between atoms: _537  and  _538
REMARK  217  A    between atoms: _538  and  _539
REMARK                            x       y       z     vdW  Elec       q    Type
REMARK                         _______ _______ _______ _____ _____    ______ ____
ROOT
ATOM      1  O   HOH     1      19.718  10.674  25.495  0.00  0.00    +0.000 OA
ENDROOT
TORSDOF 0
REMARK  Name = ../refined-set-2016/4h3g/4h3g_pocket.pdb
REMARK  217 active torsions:
REMARK  status: ('A' for Active; 'I' for Inactive)
REMARK    1  A    between atoms: _1  and  _3
REMARK    2  A    between atoms: _3  and  _4
REMARK    3  A    between atoms: _3  and  _6
REMARK    4  A    between atoms: _6  and  _7
REMARK    5  A    between atoms: _7  and  _8
REMARK    6  A    between atoms: _8  and  _9
REMARK    7  A    between atoms: _9  and  _10
REMARK    8  A    between atoms: _14  and  _16
REMARK    9  A    between atoms: _16  and  _17
REMARK   10  A    between atoms: _16  and  _19
REMARK   11  A    between atoms: _19  and  _20
REMARK   12  A    between atoms: _22  and  _24
REMARK   13  A    between atoms: _24  and  _25
REMARK   14  A    between atoms: _27  and  _29
REMARK   15  A    between atoms: _29  and  _30
REMARK   16  A    between atoms: _29  and  _32
REMARK   17  A    between atoms: _32  and  _33
REMARK   18  A    between atoms: _33  and  _34
REMARK   19  A    between atoms: _39  and  _41
REMARK   20  A    between atoms: _41  and  _42
REMARK   21  A    between atoms: _44  and  _46
REMARK   22  A    between atoms: _46  and  _47
REMARK   23  A    between atoms: _46  and  _49
REMARK   24  A    between atoms: _49  and  _50
REMARK   25  A    between atoms: _55  and  _56
REMARK   26  A    between atoms: _58  and  _60
REMARK   27  A    between atoms: _60  and  _61
REMARK   28  A    between atoms: _60  and  _63
REMARK   29  A    between atoms: _63  and  _64
REMARK   30  A    between atoms: _67  and  _69
REMARK   31  A    between atoms: _69  and  _70
REMARK   32  A    between atoms: _69  and  _72
REMARK   33  A    between atoms: _75  and  _77
REMARK   34  A    between atoms: _77  and  _78
REMARK   35  A    between atoms: _77  and  _80
REMARK   36  A    between atoms: _80  and  _81
REMARK   37  A    between atoms: _84  and  _86
REMARK   38  A    between atoms: _86  and  _87
REMARK   39  A    between atoms: _86  and  _89
REMARK   40  A    between atoms: _89  and  _90
REMARK   41  A    between atoms: _93  and  _95
REMARK   42  A    between atoms: _95  and  _96
REMARK   43  A    between atoms: _98  and  _100
REMARK   44  A    between atoms: _100  and  _101
REMARK   45  A    between atoms: _100  and  _103
REMARK   46  A    between atoms: _103  and  _104
REMARK   47  A    between atoms: _106  and  _108
REMARK   48  A    between atoms: _108  and  _109
REMARK   49  A    between atoms: _108  and  _111
REMARK   50  A    between atoms: _111  and  _112
REMARK   51  A    between atoms: _114  and  _116
REMARK   52  A    between atoms: _116  and  _117
REMARK   53  A    between atoms: _116  and  _119
REMARK   54  A    between atoms: _119  and  _120
REMARK   55  A    between atoms: _125  and  _127
REMARK   56  A    between atoms: _127  and  _128
REMARK   57  A    between atoms: _127  and  _130
REMARK   58  A    between atoms: _130  and  _131
REMARK   59  A    between atoms: _137  and  _139
REMARK   60  A    between atoms: _139  and  _140
REMARK   61  A    between atoms: _143  and  _145
REMARK   62  A    between atoms: _145  and  _146
REMARK   63  A    between atoms: _145  and  _148
REMARK   64  A    between atoms: _151  and  _153
REMARK   65  A    between atoms: _153  and  _154
REMARK   66  A    between atoms: _153  and  _156
REMARK   67  A    between atoms: _156  and  _157
REMARK   68  A    between atoms: _162  and  _163
REMARK   69  A    between atoms: _165  and  _167
REMARK   70  A    between atoms: _167  and  _168
REMARK   71  A    between atoms: _167  and  _170
REMARK   72  A    between atoms: _174  and  _175
REMARK   73  A    between atoms: _180  and  _182
REMARK   74  A    between atoms: _182  and  _183
REMARK   75  A    between atoms: _182  and  _185
REMARK   76  A    between atoms: _185  and  _186
REMARK   77  A    between atoms: _191  and  _192
REMARK   78  A    between atoms: _194  and  _196
REMARK   79  A    between atoms: _196  and  _197
REMARK   80  A    between atoms: _196  and  _199
REMARK   81  A    between atoms: _199  and  _200
REMARK   82  A    between atoms: _203  and  _205
REMARK   83  A    between atoms: _205  and  _206
REMARK   84  A    between atoms: _205  and  _208
REMARK   85  A    between atoms: _208  and  _209
REMARK   86  A    between atoms: _209  and  _210
REMARK   87  A    between atoms: _215  and  _217
REMARK   88  A    between atoms: _217  and  _218
REMARK   89  A    between atoms: _220  and  _222
REMARK   90  A    between atoms: _222  and  _223
REMARK   91  A    between atoms: _222  and  _225
REMARK   92  A    between atoms: _225  and  _226
REMARK   93  A    between atoms: _226  and  _227
REMARK   94  A    between atoms: _227  and  _228
REMARK   95  A    between atoms: _228  and  _229
REMARK   96  A    between atoms: _233  and  _235
REMARK   97  A    between atoms: _235  and  _236
REMARK   98  A    between atoms: _235  and  _238
REMARK   99  A    between atoms: _238  and  _239
REMARK  100  A    between atoms: _249  and  _251
REMARK  101  A    between atoms: _251  and  _252
REMARK  102  A    between atoms: _251  and  _254
REMARK  103  A    between atoms: _254  and  _255
REMARK  104  A    between atoms: _258  and  _260
REMARK  105  A    between atoms: _260  and  _261
REMARK  106  A    between atoms: _260  and  _263
REMARK  107  A    between atoms: _263  and  _264
REMARK  108  A    between atoms: _264  and  _265
REMARK  109  A    between atoms: _265  and  _266
REMARK  110  A    between atoms: _266  and  _267
REMARK  111  A    between atoms: _271  and  _273
REMARK  112  A    between atoms: _273  and  _274
REMARK  113  A    between atoms: _273  and  _276
REMARK  114  A    between atoms: _276  and  _277
REMARK  115  A    between atoms: _283  and  _285
REMARK  116  A    between atoms: _285  and  _286
REMARK  117  A    between atoms: _285  and  _288
REMARK  118  A    between atoms: _288  and  _289
REMARK  119  A    between atoms: _295  and  _297
REMARK  120  A    between atoms: _297  and  _298
REMARK  121  A    between atoms: _297  and  _300
REMARK  122  A    between atoms: _300  and  _301
REMARK  123  A    between atoms: _304  and  _306
REMARK  124  A    between atoms: _306  and  _307
REMARK  125  A    between atoms: _306  and  _309
REMARK  126  A    between atoms: _309  and  _310
REMARK  127  A    between atoms: _312  and  _314
REMARK  128  A    between atoms: _314  and  _315
REMARK  129  A    between atoms: _314  and  _317
REMARK  130  A    between atoms: _317  and  _318
REMARK  131  A    between atoms: _328  and  _330
REMARK  132  A    between atoms: _330  and  _331
REMARK  133  A    between atoms: _333  and  _335
REMARK  134  A    between atoms: _335  and  _336
REMARK  135  A    between atoms: _335  and  _338
REMARK  136  A    between atoms: _338  and  _339
REMARK  137  A    between atoms: _342  and  _344
REMARK  138  A    between atoms: _344  and  _345
REMARK  139  A    between atoms: _344  and  _347
REMARK  140  A    between atoms: _347  and  _348
REMARK  141  A    between atoms: _351  and  _353
REMARK  142  A    between atoms: _353  and  _354
REMARK  143  A    between atoms: _356  and  _358
REMARK  144  A    between atoms: _358  and  _359
REMARK  145  A    between atoms: _358  and  _361
REMARK  146  A    between atoms: _361  and  _362
REMARK  147  A    between atoms: _365  and  _367
REMARK  148  A    between atoms: _367  and  _368
REMARK  149  A    between atoms: _367  and  _370
REMARK  150  A    between atoms: _370  and  _371
REMARK  151  A    between atoms: _374  and  _376
REMARK  152  A    between atoms: _376  and  _377
REMARK  153  A    between atoms: _380  and  _382
REMARK  154  A    between atoms: _382  and  _383
REMARK  155  A    between atoms: _382  and  _385
REMARK  156  A    between atoms: _385  and  _386
REMARK  157  A    between atoms: _386  and  _387
REMARK  158  A    between atoms: _387  and  _388
REMARK  159  A    between atoms: _397  and  _399
REMARK  160  A    between atoms: _399  and  _400
REMARK  161  A    between atoms: _399  and  _402
REMARK  162  A    between atoms: _402  and  _403
REMARK  163  A    between atoms: _406  and  _408
REMARK  164  A    between atoms: _408  and  _409
REMARK  165  A    between atoms: _408  and  _411
REMARK  166  A    between atoms: _411  and  _412
REMARK  167  A    between atoms: _417  and  _418
REMARK  168  A    between atoms: _420  and  _422
REMARK  169  A    between atoms: _422  and  _423
REMARK  170  A    between atoms: _422  and  _425
REMARK  171  A    between atoms: _425  and  _426
REMARK  172  A    between atoms: _429  and  _431
REMARK  173  A    between atoms: _431  and  _432
REMARK  174  A    between atoms: _431  and  _434
REMARK  175  A    between atoms: _437  and  _439
REMARK  176  A    between atoms: _439  and  _440
REMARK  177  A    between atoms: _439  and  _442
REMARK  178  A    between atoms: _442  and  _443
REMARK  179  A    between atoms: _446  and  _448
REMARK  180  A    between atoms: _448  and  _449
REMARK  181  A    between atoms: _448  and  _451
REMARK  182  A    between atoms: _451  and  _452
REMARK  183  A    between atoms: _454  and  _456
REMARK  184  A    between atoms: _456  and  _457
REMARK  185  A    between atoms: _459  and  _461
REMARK  186  A    between atoms: _461  and  _462
REMARK  187  A    between atoms: _461  and  _464
REMARK  188  A    between atoms: _464  and  _465
REMARK  189  A    between atoms: _468  and  _470
REMARK  190  A    between atoms: _470  and  _471
REMARK  191  A    between atoms: _470  and  _473
REMARK  192  A    between atoms: _473  and  _474
REMARK  193  A    between atoms: _477  and  _479
REMARK  194  A    between atoms: _479  and  _480
REMARK  195  A    between atoms: _479  and  _482
REMARK  196  A    between atoms: _482  and  _483
REMARK  197  A    between atoms: _488  and  _490
REMARK  198  A    between atoms: _490  and  _491
REMARK  199  A    between atoms: _490  and  _493
REMARK  200  A    between atoms: _493  and  _494
REMARK  201  A    between atoms: _494  and  _495
REMARK  202  A    between atoms: _495  and  _496
REMARK  203  A    between atoms: _505  and  _507
REMARK  204  A    between atoms: _507  and  _508
REMARK  205  A    between atoms: _507  and  _510
REMARK  206  A    between atoms: _513  and  _515
REMARK  207  A    between atoms: _515  and  _516
REMARK  208  A    between atoms: _518  and  _520
REMARK  209  A    between atoms: _520  and  _521
REMARK  210  A    between atoms: _524  and  _526
REMARK  211  A    between atoms: _526  and  _527
REMARK  212  A    between atoms: _526  and  _529
REMARK  213  A    between atoms: _532  and  _534
REMARK  214  A    between atoms: _534  and  _535
REMARK  215  A    between atoms: _534  and  _537
REMARK  216  A    between atoms: _537  and  _538
REMARK  217  A    between atoms: _538  and  _539
REMARK                            x       y       z     vdW  Elec       q    Type
REMARK                         _______ _______ _______ _____ _____    ______ ____
ROOT
ATOM      1  O   HOH     1      20.292  14.033  30.657  0.00  0.00    +0.000 OA
ENDROOT
TORSDOF 0
REMARK  Name = ../refined-set-2016/4h3g/4h3g_pocket.pdb
REMARK  217 active torsions:
REMARK  status: ('A' for Active; 'I' for Inactive)
REMARK    1  A    between atoms: _1  and  _3
REMARK    2  A    between atoms: _3  and  _4
REMARK    3  A    between atoms: _3  and  _6
REMARK    4  A    between atoms: _6  and  _7
REMARK    5  A    between atoms: _7  and  _8
REMARK    6  A    between atoms: _8  and  _9
REMARK    7  A    between atoms: _9  and  _10
REMARK    8  A    between atoms: _14  and  _16
REMARK    9  A    between atoms: _16  and  _17
REMARK   10  A    between atoms: _16  and  _19
REMARK   11  A    between atoms: _19  and  _20
REMARK   12  A    between atoms: _22  and  _24
REMARK   13  A    between atoms: _24  and  _25
REMARK   14  A    between atoms: _27  and  _29
REMARK   15  A    between atoms: _29  and  _30
REMARK   16  A    between atoms: _29  and  _32
REMARK   17  A    between atoms: _32  and  _33
REMARK   18  A    between atoms: _33  and  _34
REMARK   19  A    between atoms: _39  and  _41
REMARK   20  A    between atoms: _41  and  _42
REMARK   21  A    between atoms: _44  and  _46
REMARK   22  A    between atoms: _46  and  _47
REMARK   23  A    between atoms: _46  and  _49
REMARK   24  A    between atoms: _49  and  _50
REMARK   25  A    between atoms: _55  and  _56
REMARK   26  A    between atoms: _58  and  _60
REMARK   27  A    between atoms: _60  and  _61
REMARK   28  A    between atoms: _60  and  _63
REMARK   29  A    between atoms: _63  and  _64
REMARK   30  A    between atoms: _67  and  _69
REMARK   31  A    between atoms: _69  and  _70
REMARK   32  A    between atoms: _69  and  _72
REMARK   33  A    between atoms: _75  and  _77
REMARK   34  A    between atoms: _77  and  _78
REMARK   35  A    between atoms: _77  and  _80
REMARK   36  A    between atoms: _80  and  _81
REMARK   37  A    between atoms: _84  and  _86
REMARK   38  A    between atoms: _86  and  _87
REMARK   39  A    between atoms: _86  and  _89
REMARK   40  A    between atoms: _89  and  _90
REMARK   41  A    between atoms: _93  and  _95
REMARK   42  A    between atoms: _95  and  _96
REMARK   43  A    between atoms: _98  and  _100
REMARK   44  A    between atoms: _100  and  _101
REMARK   45  A    between atoms: _100  and  _103
REMARK   46  A    between atoms: _103  and  _104
REMARK   47  A    between atoms: _106  and  _108
REMARK   48  A    between atoms: _108  and  _109
REMARK   49  A    between atoms: _108  and  _111
REMARK   50  A    between atoms: _111  and  _112
REMARK   51  A    between atoms: _114  and  _116
REMARK   52  A    between atoms: _116  and  _117
REMARK   53  A    between atoms: _116  and  _119
REMARK   54  A    between atoms: _119  and  _120
REMARK   55  A    between atoms: _125  and  _127
REMARK   56  A    between atoms: _127  and  _128
REMARK   57  A    between atoms: _127  and  _130
REMARK   58  A    between atoms: _130  and  _131
REMARK   59  A    between atoms: _137  and  _139
REMARK   60  A    between atoms: _139  and  _140
REMARK   61  A    between atoms: _143  and  _145
REMARK   62  A    between atoms: _145  and  _146
REMARK   63  A    between atoms: _145  and  _148
REMARK   64  A    between atoms: _151  and  _153
REMARK   65  A    between atoms: _153  and  _154
REMARK   66  A    between atoms: _153  and  _156
REMARK   67  A    between atoms: _156  and  _157
REMARK   68  A    between atoms: _162  and  _163
REMARK   69  A    between atoms: _165  and  _167
REMARK   70  A    between atoms: _167  and  _168
REMARK   71  A    between atoms: _167  and  _170
REMARK   72  A    between atoms: _174  and  _175
REMARK   73  A    between atoms: _180  and  _182
REMARK   74  A    between atoms: _182  and  _183
REMARK   75  A    between atoms: _182  and  _185
REMARK   76  A    between atoms: _185  and  _186
REMARK   77  A    between atoms: _191  and  _192
REMARK   78  A    between atoms: _194  and  _196
REMARK   79  A    between atoms: _196  and  _197
REMARK   80  A    between atoms: _196  and  _199
REMARK   81  A    between atoms: _199  and  _200
REMARK   82  A    between atoms: _203  and  _205
REMARK   83  A    between atoms: _205  and  _206
REMARK   84  A    between atoms: _205  and  _208
REMARK   85  A    between atoms: _208  and  _209
REMARK   86  A    between atoms: _209  and  _210
REMARK   87  A    between atoms: _215  and  _217
REMARK   88  A    between atoms: _217  and  _218
REMARK   89  A    between atoms: _220  and  _222
REMARK   90  A    between atoms: _222  and  _223
REMARK   91  A    between atoms: _222  and  _225
REMARK   92  A    between atoms: _225  and  _226
REMARK   93  A    between atoms: _226  and  _227
REMARK   94  A    between atoms: _227  and  _228
REMARK   95  A    between atoms: _228  and  _229
REMARK   96  A    between atoms: _233  and  _235
REMARK   97  A    between atoms: _235  and  _236
REMARK   98  A    between atoms: _235  and  _238
REMARK   99  A    between atoms: _238  and  _239
REMARK  100  A    between atoms: _249  and  _251
REMARK  101  A    between atoms: _251  and  _252
REMARK  102  A    between atoms: _251  and  _254
REMARK  103  A    between atoms: _254  and  _255
REMARK  104  A    between atoms: _258  and  _260
REMARK  105  A    between atoms: _260  and  _261
REMARK  106  A    between atoms: _260  and  _263
REMARK  107  A    between atoms: _263  and  _264
REMARK  108  A    between atoms: _264  and  _265
REMARK  109  A    between atoms: _265  and  _266
REMARK  110  A    between atoms: _266  and  _267
REMARK  111  A    between atoms: _271  and  _273
REMARK  112  A    between atoms: _273  and  _274
REMARK  113  A    between atoms: _273  and  _276
REMARK  114  A    between atoms: _276  and  _277
REMARK  115  A    between atoms: _283  and  _285
REMARK  116  A    between atoms: _285  and  _286
REMARK  117  A    between atoms: _285  and  _288
REMARK  118  A    between atoms: _288  and  _289
REMARK  119  A    between atoms: _295  and  _297
REMARK  120  A    between atoms: _297  and  _298
REMARK  121  A    between atoms: _297  and  _300
REMARK  122  A    between atoms: _300  and  _301
REMARK  123  A    between atoms: _304  and  _306
REMARK  124  A    between atoms: _306  and  _307
REMARK  125  A    between atoms: _306  and  _309
REMARK  126  A    between atoms: _309  and  _310
REMARK  127  A    between atoms: _312  and  _314
REMARK  128  A    between atoms: _314  and  _315
REMARK  129  A    between atoms: _314  and  _317
REMARK  130  A    between atoms: _317  and  _318
REMARK  131  A    between atoms: _328  and  _330
REMARK  132  A    between atoms: _330  and  _331
REMARK  133  A    between atoms: _333  and  _335
REMARK  134  A    between atoms: _335  and  _336
REMARK  135  A    between atoms: _335  and  _338
REMARK  136  A    between atoms: _338  and  _339
REMARK  137  A    between atoms: _342  and  _344
REMARK  138  A    between atoms: _344  and  _345
REMARK  139  A    between atoms: _344  and  _347
REMARK  140  A    between atoms: _347  and  _348
REMARK  141  A    between atoms: _351  and  _353
REMARK  142  A    between atoms: _353  and  _354
REMARK  143  A    between atoms: _356  and  _358
REMARK  144  A    between atoms: _358  and  _359
REMARK  145  A    between atoms: _358  and  _361
REMARK  146  A    between atoms: _361  and  _362
REMARK  147  A    between atoms: _365  and  _367
REMARK  148  A    between atoms: _367  and  _368
REMARK  149  A    between atoms: _367  and  _370
REMARK  150  A    between atoms: _370  and  _371
REMARK  151  A    between atoms: _374  and  _376
REMARK  152  A    between atoms: _376  and  _377
REMARK  153  A    between atoms: _380  and  _382
REMARK  154  A    between atoms: _382  and  _383
REMARK  155  A    between atoms: _382  and  _385
REMARK  156  A    between atoms: _385  and  _386
REMARK  157  A    between atoms: _386  and  _387
REMARK  158  A    between atoms: _387  and  _388
REMARK  159  A    between atoms: _397  and  _399
REMARK  160  A    between atoms: _399  and  _400
REMARK  161  A    between atoms: _399  and  _402
REMARK  162  A    between atoms: _402  and  _403
REMARK  163  A    between atoms: _406  and  _408
REMARK  164  A    between atoms: _408  and  _409
REMARK  165  A    between atoms: _408  and  _411
REMARK  166  A    between atoms: _411  and  _412
REMARK  167  A    between atoms: _417  and  _418
REMARK  168  A    between atoms: _420  and  _422
REMARK  169  A    between atoms: _422  and  _423
REMARK  170  A    between atoms: _422  and  _425
REMARK  171  A    between atoms: _425  and  _426
REMARK  172  A    between atoms: _429  and  _431
REMARK  173  A    between atoms: _431  and  _432
REMARK  174  A    between atoms: _431  and  _434
REMARK  175  A    between atoms: _437  and  _439
REMARK  176  A    between atoms: _439  and  _440
REMARK  177  A    between atoms: _439  and  _442
REMARK  178  A    between atoms: _442  and  _443
REMARK  179  A    between atoms: _446  and  _448
REMARK  180  A    between atoms: _448  and  _449
REMARK  181  A    between atoms: _448  and  _451
REMARK  182  A    between atoms: _451  and  _452
REMARK  183  A    between atoms: _454  and  _456
REMARK  184  A    between atoms: _456  and  _457
REMARK  185  A    between atoms: _459  and  _461
REMARK  186  A    between atoms: _461  and  _462
REMARK  187  A    between atoms: _461  and  _464
REMARK  188  A    between atoms: _464  and  _465
REMARK  189  A    between atoms: _468  and  _470
REMARK  190  A    between atoms: _470  and  _471
REMARK  191  A    between atoms: _470  and  _473
REMARK  192  A    between atoms: _473  and  _474
REMARK  193  A    between atoms: _477  and  _479
REMARK  194  A    between atoms: _479  and  _480
REMARK  195  A    between atoms: _479  and  _482
REMARK  196  A    between atoms: _482  and  _483
REMARK  197  A    between atoms: _488  and  _490
REMARK  198  A    between atoms: _490  and  _491
REMARK  199  A    between atoms: _490  and  _493
REMARK  200  A    between atoms: _493  and  _494
REMARK  201  A    between atoms: _494  and  _495
REMARK  202  A    between atoms: _495  and  _496
REMARK  203  A    between atoms: _505  and  _507
REMARK  204  A    between atoms: _507  and  _508
REMARK  205  A    between atoms: _507  and  _510
REMARK  206  A    between atoms: _513  and  _515
REMARK  207  A    between atoms: _515  and  _516
REMARK  208  A    between atoms: _518  and  _520
REMARK  209  A    between atoms: _520  and  _521
REMARK  210  A    between atoms: _524  and  _526
REMARK  211  A    between atoms: _526  and  _527
REMARK  212  A    between atoms: _526  and  _529
REMARK  213  A    between atoms: _532  and  _534
REMARK  214  A    between atoms: _534  and  _535
REMARK  215  A    between atoms: _534  and  _537
REMARK  216  A    between atoms: _537  and  _538
REMARK  217  A    between atoms: _538  and  _539
REMARK                            x       y       z     vdW  Elec       q    Type
REMARK                         _______ _______ _______ _____ _____    ______ ____
ROOT
ATOM      1  O   HOH     1      28.442  17.576  27.546  0.00  0.00    +0.000 OA
ENDROOT
TORSDOF 0
REMARK  Name = ../refined-set-2016/4h3g/4h3g_pocket.pdb
REMARK  217 active torsions:
REMARK  status: ('A' for Active; 'I' for Inactive)
REMARK    1  A    between atoms: _1  and  _3
REMARK    2  A    between atoms: _3  and  _4
REMARK    3  A    between atoms: _3  and  _6
REMARK    4  A    between atoms: _6  and  _7
REMARK    5  A    between atoms: _7  and  _8
REMARK    6  A    between atoms: _8  and  _9
REMARK    7  A    between atoms: _9  and  _10
REMARK    8  A    between atoms: _14  and  _16
REMARK    9  A    between atoms: _16  and  _17
REMARK   10  A    between atoms: _16  and  _19
REMARK   11  A    between atoms: _19  and  _20
REMARK   12  A    between atoms: _22  and  _24
REMARK   13  A    between atoms: _24  and  _25
REMARK   14  A    between atoms: _27  and  _29
REMARK   15  A    between atoms: _29  and  _30
REMARK   16  A    between atoms: _29  and  _32
REMARK   17  A    between atoms: _32  and  _33
REMARK   18  A    between atoms: _33  and  _34
REMARK   19  A    between atoms: _39  and  _41
REMARK   20  A    between atoms: _41  and  _42
REMARK   21  A    between atoms: _44  and  _46
REMARK   22  A    between atoms: _46  and  _47
REMARK   23  A    between atoms: _46  and  _49
REMARK   24  A    between atoms: _49  and  _50
REMARK   25  A    between atoms: _55  and  _56
REMARK   26  A    between atoms: _58  and  _60
REMARK   27  A    between atoms: _60  and  _61
REMARK   28  A    between atoms: _60  and  _63
REMARK   29  A    between atoms: _63  and  _64
REMARK   30  A    between atoms: _67  and  _69
REMARK   31  A    between atoms: _69  and  _70
REMARK   32  A    between atoms: _69  and  _72
REMARK   33  A    between atoms: _75  and  _77
REMARK   34  A    between atoms: _77  and  _78
REMARK   35  A    between atoms: _77  and  _80
REMARK   36  A    between atoms: _80  and  _81
REMARK   37  A    between atoms: _84  and  _86
REMARK   38  A    between atoms: _86  and  _87
REMARK   39  A    between atoms: _86  and  _89
REMARK   40  A    between atoms: _89  and  _90
REMARK   41  A    between atoms: _93  and  _95
REMARK   42  A    between atoms: _95  and  _96
REMARK   43  A    between atoms: _98  and  _100
REMARK   44  A    between atoms: _100  and  _101
REMARK   45  A    between atoms: _100  and  _103
REMARK   46  A    between atoms: _103  and  _104
REMARK   47  A    between atoms: _106  and  _108
REMARK   48  A    between atoms: _108  and  _109
REMARK   49  A    between atoms: _108  and  _111
REMARK   50  A    between atoms: _111  and  _112
REMARK   51  A    between atoms: _114  and  _116
REMARK   52  A    between atoms: _116  and  _117
REMARK   53  A    between atoms: _116  and  _119
REMARK   54  A    between atoms: _119  and  _120
REMARK   55  A    between atoms: _125  and  _127
REMARK   56  A    between atoms: _127  and  _128
REMARK   57  A    between atoms: _127  and  _130
REMARK   58  A    between atoms: _130  and  _131
REMARK   59  A    between atoms: _137  and  _139
REMARK   60  A    between atoms: _139  and  _140
REMARK   61  A    between atoms: _143  and  _145
REMARK   62  A    between atoms: _145  and  _146
REMARK   63  A    between atoms: _145  and  _148
REMARK   64  A    between atoms: _151  and  _153
REMARK   65  A    between atoms: _153  and  _154
REMARK   66  A    between atoms: _153  and  _156
REMARK   67  A    between atoms: _156  and  _157
REMARK   68  A    between atoms: _162  and  _163
REMARK   69  A    between atoms: _165  and  _167
REMARK   70  A    between atoms: _167  and  _168
REMARK   71  A    between atoms: _167  and  _170
REMARK   72  A    between atoms: _174  and  _175
REMARK   73  A    between atoms: _180  and  _182
REMARK   74  A    between atoms: _182  and  _183
REMARK   75  A    between atoms: _182  and  _185
REMARK   76  A    between atoms: _185  and  _186
REMARK   77  A    between atoms: _191  and  _192
REMARK   78  A    between atoms: _194  and  _196
REMARK   79  A    between atoms: _196  and  _197
REMARK   80  A    between atoms: _196  and  _199
REMARK   81  A    between atoms: _199  and  _200
REMARK   82  A    between atoms: _203  and  _205
REMARK   83  A    between atoms: _205  and  _206
REMARK   84  A    between atoms: _205  and  _208
REMARK   85  A    between atoms: _208  and  _209
REMARK   86  A    between atoms: _209  and  _210
REMARK   87  A    between atoms: _215  and  _217
REMARK   88  A    between atoms: _217  and  _218
REMARK   89  A    between atoms: _220  and  _222
REMARK   90  A    between atoms: _222  and  _223
REMARK   91  A    between atoms: _222  and  _225
REMARK   92  A    between atoms: _225  and  _226
REMARK   93  A    between atoms: _226  and  _227
REMARK   94  A    between atoms: _227  and  _228
REMARK   95  A    between atoms: _228  and  _229
REMARK   96  A    between atoms: _233  and  _235
REMARK   97  A    between atoms: _235  and  _236
REMARK   98  A    between atoms: _235  and  _238
REMARK   99  A    between atoms: _238  and  _239
REMARK  100  A    between atoms: _249  and  _251
REMARK  101  A    between atoms: _251  and  _252
REMARK  102  A    between atoms: _251  and  _254
REMARK  103  A    between atoms: _254  and  _255
REMARK  104  A    between atoms: _258  and  _260
REMARK  105  A    between atoms: _260  and  _261
REMARK  106  A    between atoms: _260  and  _263
REMARK  107  A    between atoms: _263  and  _264
REMARK  108  A    between atoms: _264  and  _265
REMARK  109  A    between atoms: _265  and  _266
REMARK  110  A    between atoms: _266  and  _267
REMARK  111  A    between atoms: _271  and  _273
REMARK  112  A    between atoms: _273  and  _274
REMARK  113  A    between atoms: _273  and  _276
REMARK  114  A    between atoms: _276  and  _277
REMARK  115  A    between atoms: _283  and  _285
REMARK  116  A    between atoms: _285  and  _286
REMARK  117  A    between atoms: _285  and  _288
REMARK  118  A    between atoms: _288  and  _289
REMARK  119  A    between atoms: _295  and  _297
REMARK  120  A    between atoms: _297  and  _298
REMARK  121  A    between atoms: _297  and  _300
REMARK  122  A    between atoms: _300  and  _301
REMARK  123  A    between atoms: _304  and  _306
REMARK  124  A    between atoms: _306  and  _307
REMARK  125  A    between atoms: _306  and  _309
REMARK  126  A    between atoms: _309  and  _310
REMARK  127  A    between atoms: _312  and  _314
REMARK  128  A    between atoms: _314  and  _315
REMARK  129  A    between atoms: _314  and  _317
REMARK  130  A    between atoms: _317  and  _318
REMARK  131  A    between atoms: _328  and  _330
REMARK  132  A    between atoms: _330  and  _331
REMARK  133  A    between atoms: _333  and  _335
REMARK  134  A    between atoms: _335  and  _336
REMARK  135  A    between atoms: _335  and  _338
REMARK  136  A    between atoms: _338  and  _339
REMARK  137  A    between atoms: _342  and  _344
REMARK  138  A    between atoms: _344  and  _345
REMARK  139  A    between atoms: _344  and  _347
REMARK  140  A    between atoms: _347  and  _348
REMARK  141  A    between atoms: _351  and  _353
REMARK  142  A    between atoms: _353  and  _354
REMARK  143  A    between atoms: _356  and  _358
REMARK  144  A    between atoms: _358  and  _359
REMARK  145  A    between atoms: _358  and  _361
REMARK  146  A    between atoms: _361  and  _362
REMARK  147  A    between atoms: _365  and  _367
REMARK  148  A    between atoms: _367  and  _368
REMARK  149  A    between atoms: _367  and  _370
REMARK  150  A    between atoms: _370  and  _371
REMARK  151  A    between atoms: _374  and  _376
REMARK  152  A    between atoms: _376  and  _377
REMARK  153  A    between atoms: _380  and  _382
REMARK  154  A    between atoms: _382  and  _383
REMARK  155  A    between atoms: _382  and  _385
REMARK  156  A    between atoms: _385  and  _386
REMARK  157  A    between atoms: _386  and  _387
REMARK  158  A    between atoms: _387  and  _388
REMARK  159  A    between atoms: _397  and  _399
REMARK  160  A    between atoms: _399  and  _400
REMARK  161  A    between atoms: _399  and  _402
REMARK  162  A    between atoms: _402  and  _403
REMARK  163  A    between atoms: _406  and  _408
REMARK  164  A    between atoms: _408  and  _409
REMARK  165  A    between atoms: _408  and  _411
REMARK  166  A    between atoms: _411  and  _412
REMARK  167  A    between atoms: _417  and  _418
REMARK  168  A    between atoms: _420  and  _422
REMARK  169  A    between atoms: _422  and  _423
REMARK  170  A    between atoms: _422  and  _425
REMARK  171  A    between atoms: _425  and  _426
REMARK  172  A    between atoms: _429  and  _431
REMARK  173  A    between atoms: _431  and  _432
REMARK  174  A    between atoms: _431  and  _434
REMARK  175  A    between atoms: _437  and  _439
REMARK  176  A    between atoms: _439  and  _440
REMARK  177  A    between atoms: _439  and  _442
REMARK  178  A    between atoms: _442  and  _443
REMARK  179  A    between atoms: _446  and  _448
REMARK  180  A    between atoms: _448  and  _449
REMARK  181  A    between atoms: _448  and  _451
REMARK  182  A    between atoms: _451  and  _452
REMARK  183  A    between atoms: _454  and  _456
REMARK  184  A    between atoms: _456  and  _457
REMARK  185  A    between atoms: _459  and  _461
REMARK  186  A    between atoms: _461  and  _462
REMARK  187  A    between atoms: _461  and  _464
REMARK  188  A    between atoms: _464  and  _465
REMARK  189  A    between atoms: _468  and  _470
REMARK  190  A    between atoms: _470  and  _471
REMARK  191  A    between atoms: _470  and  _473
REMARK  192  A    between atoms: _473  and  _474
REMARK  193  A    between atoms: _477  and  _479
REMARK  194  A    between atoms: _479  and  _480
REMARK  195  A    between atoms: _479  and  _482
REMARK  196  A    between atoms: _482  and  _483
REMARK  197  A    between atoms: _488  and  _490
REMARK  198  A    between atoms: _490  and  _491
REMARK  199  A    between atoms: _490  and  _493
REMARK  200  A    between atoms: _493  and  _494
REMARK  201  A    between atoms: _494  and  _495
REMARK  202  A    between atoms: _495  and  _496
REMARK  203  A    between atoms: _505  and  _507
REMARK  204  A    between atoms: _507  and  _508
REMARK  205  A    between atoms: _507  and  _510
REMARK  206  A    between atoms: _513  and  _515
REMARK  207  A    between atoms: _515  and  _516
REMARK  208  A    between atoms: _518  and  _520
REMARK  209  A    between atoms: _520  and  _521
REMARK  210  A    between atoms: _524  and  _526
REMARK  211  A    between atoms: _526  and  _527
REMARK  212  A    between atoms: _526  and  _529
REMARK  213  A    between atoms: _532  and  _534
REMARK  214  A    between atoms: _534  and  _535
REMARK  215  A    between atoms: _534  and  _537
REMARK  216  A    between atoms: _537  and  _538
REMARK  217  A    between atoms: _538  and  _539
REMARK                            x       y       z     vdW  Elec       q    Type
REMARK                         _______ _______ _______ _____ _____    ______ ____
ROOT
ATOM      1  O   HOH     1      28.393  13.859  24.350  0.00  0.00    +0.000 OA
ENDROOT
TORSDOF 0
REMARK  Name = ../refined-set-2016/4h3g/4h3g_pocket.pdb
REMARK  217 active torsions:
REMARK  status: ('A' for Active; 'I' for Inactive)
REMARK    1  A    between atoms: _1  and  _3
REMARK    2  A    between atoms: _3  and  _4
REMARK    3  A    between atoms: _3  and  _6
REMARK    4  A    between atoms: _6  and  _7
REMARK    5  A    between atoms: _7  and  _8
REMARK    6  A    between atoms: _8  and  _9
REMARK    7  A    between atoms: _9  and  _10
REMARK    8  A    between atoms: _14  and  _16
REMARK    9  A    between atoms: _16  and  _17
REMARK   10  A    between atoms: _16  and  _19
REMARK   11  A    between atoms: _19  and  _20
REMARK   12  A    between atoms: _22  and  _24
REMARK   13  A    between atoms: _24  and  _25
REMARK   14  A    between atoms: _27  and  _29
REMARK   15  A    between atoms: _29  and  _30
REMARK   16  A    between atoms: _29  and  _32
REMARK   17  A    between atoms: _32  and  _33
REMARK   18  A    between atoms: _33  and  _34
REMARK   19  A    between atoms: _39  and  _41
REMARK   20  A    between atoms: _41  and  _42
REMARK   21  A    between atoms: _44  and  _46
REMARK   22  A    between atoms: _46  and  _47
REMARK   23  A    between atoms: _46  and  _49
REMARK   24  A    between atoms: _49  and  _50
REMARK   25  A    between atoms: _55  and  _56
REMARK   26  A    between atoms: _58  and  _60
REMARK   27  A    between atoms: _60  and  _61
REMARK   28  A    between atoms: _60  and  _63
REMARK   29  A    between atoms: _63  and  _64
REMARK   30  A    between atoms: _67  and  _69
REMARK   31  A    between atoms: _69  and  _70
REMARK   32  A    between atoms: _69  and  _72
REMARK   33  A    between atoms: _75  and  _77
REMARK   34  A    between atoms: _77  and  _78
REMARK   35  A    between atoms: _77  and  _80
REMARK   36  A    between atoms: _80  and  _81
REMARK   37  A    between atoms: _84  and  _86
REMARK   38  A    between atoms: _86  and  _87
REMARK   39  A    between atoms: _86  and  _89
REMARK   40  A    between atoms: _89  and  _90
REMARK   41  A    between atoms: _93  and  _95
REMARK   42  A    between atoms: _95  and  _96
REMARK   43  A    between atoms: _98  and  _100
REMARK   44  A    between atoms: _100  and  _101
REMARK   45  A    between atoms: _100  and  _103
REMARK   46  A    between atoms: _103  and  _104
REMARK   47  A    between atoms: _106  and  _108
REMARK   48  A    between atoms: _108  and  _109
REMARK   49  A    between atoms: _108  and  _111
REMARK   50  A    between atoms: _111  and  _112
REMARK   51  A    between atoms: _114  and  _116
REMARK   52  A    between atoms: _116  and  _117
REMARK   53  A    between atoms: _116  and  _119
REMARK   54  A    between atoms: _119  and  _120
REMARK   55  A    between atoms: _125  and  _127
REMARK   56  A    between atoms: _127  and  _128
REMARK   57  A    between atoms: _127  and  _130
REMARK   58  A    between atoms: _130  and  _131
REMARK   59  A    between atoms: _137  and  _139
REMARK   60  A    between atoms: _139  and  _140
REMARK   61  A    between atoms: _143  and  _145
REMARK   62  A    between atoms: _145  and  _146
REMARK   63  A    between atoms: _145  and  _148
REMARK   64  A    between atoms: _151  and  _153
REMARK   65  A    between atoms: _153  and  _154
REMARK   66  A    between atoms: _153  and  _156
REMARK   67  A    between atoms: _156  and  _157
REMARK   68  A    between atoms: _162  and  _163
REMARK   69  A    between atoms: _165  and  _167
REMARK   70  A    between atoms: _167  and  _168
REMARK   71  A    between atoms: _167  and  _170
REMARK   72  A    between atoms: _174  and  _175
REMARK   73  A    between atoms: _180  and  _182
REMARK   74  A    between atoms: _182  and  _183
REMARK   75  A    between atoms: _182  and  _185
REMARK   76  A    between atoms: _185  and  _186
REMARK   77  A    between atoms: _191  and  _192
REMARK   78  A    between atoms: _194  and  _196
REMARK   79  A    between atoms: _196  and  _197
REMARK   80  A    between atoms: _196  and  _199
REMARK   81  A    between atoms: _199  and  _200
REMARK   82  A    between atoms: _203  and  _205
REMARK   83  A    between atoms: _205  and  _206
REMARK   84  A    between atoms: _205  and  _208
REMARK   85  A    between atoms: _208  and  _209
REMARK   86  A    between atoms: _209  and  _210
REMARK   87  A    between atoms: _215  and  _217
REMARK   88  A    between atoms: _217  and  _218
REMARK   89  A    between atoms: _220  and  _222
REMARK   90  A    between atoms: _222  and  _223
REMARK   91  A    between atoms: _222  and  _225
REMARK   92  A    between atoms: _225  and  _226
REMARK   93  A    between atoms: _226  and  _227
REMARK   94  A    between atoms: _227  and  _228
REMARK   95  A    between atoms: _228  and  _229
REMARK   96  A    between atoms: _233  and  _235
REMARK   97  A    between atoms: _235  and  _236
REMARK   98  A    between atoms: _235  and  _238
REMARK   99  A    between atoms: _238  and  _239
REMARK  100  A    between atoms: _249  and  _251
REMARK  101  A    between atoms: _251  and  _252
REMARK  102  A    between atoms: _251  and  _254
REMARK  103  A    between atoms: _254  and  _255
REMARK  104  A    between atoms: _258  and  _260
REMARK  105  A    between atoms: _260  and  _261
REMARK  106  A    between atoms: _260  and  _263
REMARK  107  A    between atoms: _263  and  _264
REMARK  108  A    between atoms: _264  and  _265
REMARK  109  A    between atoms: _265  and  _266
REMARK  110  A    between atoms: _266  and  _267
REMARK  111  A    between atoms: _271  and  _273
REMARK  112  A    between atoms: _273  and  _274
REMARK  113  A    between atoms: _273  and  _276
REMARK  114  A    between atoms: _276  and  _277
REMARK  115  A    between atoms: _283  and  _285
REMARK  116  A    between atoms: _285  and  _286
REMARK  117  A    between atoms: _285  and  _288
REMARK  118  A    between atoms: _288  and  _289
REMARK  119  A    between atoms: _295  and  _297
REMARK  120  A    between atoms: _297  and  _298
REMARK  121  A    between atoms: _297  and  _300
REMARK  122  A    between atoms: _300  and  _301
REMARK  123  A    between atoms: _304  and  _306
REMARK  124  A    between atoms: _306  and  _307
REMARK  125  A    between atoms: _306  and  _309
REMARK  126  A    between atoms: _309  and  _310
REMARK  127  A    between atoms: _312  and  _314
REMARK  128  A    between atoms: _314  and  _315
REMARK  129  A    between atoms: _314  and  _317
REMARK  130  A    between atoms: _317  and  _318
REMARK  131  A    between atoms: _328  and  _330
REMARK  132  A    between atoms: _330  and  _331
REMARK  133  A    between atoms: _333  and  _335
REMARK  134  A    between atoms: _335  and  _336
REMARK  135  A    between atoms: _335  and  _338
REMARK  136  A    between atoms: _338  and  _339
REMARK  137  A    between atoms: _342  and  _344
REMARK  138  A    between atoms: _344  and  _345
REMARK  139  A    between atoms: _344  and  _347
REMARK  140  A    between atoms: _347  and  _348
REMARK  141  A    between atoms: _351  and  _353
REMARK  142  A    between atoms: _353  and  _354
REMARK  143  A    between atoms: _356  and  _358
REMARK  144  A    between atoms: _358  and  _359
REMARK  145  A    between atoms: _358  and  _361
REMARK  146  A    between atoms: _361  and  _362
REMARK  147  A    between atoms: _365  and  _367
REMARK  148  A    between atoms: _367  and  _368
REMARK  149  A    between atoms: _367  and  _370
REMARK  150  A    between atoms: _370  and  _371
REMARK  151  A    between atoms: _374  and  _376
REMARK  152  A    between atoms: _376  and  _377
REMARK  153  A    between atoms: _380  and  _382
REMARK  154  A    between atoms: _382  and  _383
REMARK  155  A    between atoms: _382  and  _385
REMARK  156  A    between atoms: _385  and  _386
REMARK  157  A    between atoms: _386  and  _387
REMARK  158  A    between atoms: _387  and  _388
REMARK  159  A    between atoms: _397  and  _399
REMARK  160  A    between atoms: _399  and  _400
REMARK  161  A    between atoms: _399  and  _402
REMARK  162  A    between atoms: _402  and  _403
REMARK  163  A    between atoms: _406  and  _408
REMARK  164  A    between atoms: _408  and  _409
REMARK  165  A    between atoms: _408  and  _411
REMARK  166  A    between atoms: _411  and  _412
REMARK  167  A    between atoms: _417  and  _418
REMARK  168  A    between atoms: _420  and  _422
REMARK  169  A    between atoms: _422  and  _423
REMARK  170  A    between atoms: _422  and  _425
REMARK  171  A    between atoms: _425  and  _426
REMARK  172  A    between atoms: _429  and  _431
REMARK  173  A    between atoms: _431  and  _432
REMARK  174  A    between atoms: _431  and  _434
REMARK  175  A    between atoms: _437  and  _439
REMARK  176  A    between atoms: _439  and  _440
REMARK  177  A    between atoms: _439  and  _442
REMARK  178  A    between atoms: _442  and  _443
REMARK  179  A    between atoms: _446  and  _448
REMARK  180  A    between atoms: _448  and  _449
REMARK  181  A    between atoms: _448  and  _451
REMARK  182  A    between atoms: _451  and  _452
REMARK  183  A    between atoms: _454  and  _456
REMARK  184  A    between atoms: _456  and  _457
REMARK  185  A    between atoms: _459  and  _461
REMARK  186  A    between atoms: _461  and  _462
REMARK  187  A    between atoms: _461  and  _464
REMARK  188  A    between atoms: _464  and  _465
REMARK  189  A    between atoms: _468  and  _470
REMARK  190  A    between atoms: _470  and  _471
REMARK  191  A    between atoms: _470  and  _473
REMARK  192  A    between atoms: _473  and  _474
REMARK  193  A    between atoms: _477  and  _479
REMARK  194  A    between atoms: _479  and  _480
REMARK  195  A    between atoms: _479  and  _482
REMARK  196  A    between atoms: _482  and  _483
REMARK  197  A    between atoms: _488  and  _490
REMARK  198  A    between atoms: _490  and  _491
REMARK  199  A    between atoms: _490  and  _493
REMARK  200  A    between atoms: _493  and  _494
REMARK  201  A    between atoms: _494  and  _495
REMARK  202  A    between atoms: _495  and  _496
REMARK  203  A    between atoms: _505  and  _507
REMARK  204  A    between atoms: _507  and  _508
REMARK  205  A    between atoms: _507  and  _510
REMARK  206  A    between atoms: _513  and  _515
REMARK  207  A    between atoms: _515  and  _516
REMARK  208  A    between atoms: _518  and  _520
REMARK  209  A    between atoms: _520  and  _521
REMARK  210  A    between atoms: _524  and  _526
REMARK  211  A    between atoms: _526  and  _527
REMARK  212  A    between atoms: _526  and  _529
REMARK  213  A    between atoms: _532  and  _534
REMARK  214  A    between atoms: _534  and  _535
REMARK  215  A    between atoms: _534  and  _537
REMARK  216  A    between atoms: _537  and  _538
REMARK  217  A    between atoms: _538  and  _539
REMARK                            x       y       z     vdW  Elec       q    Type
REMARK                         _______ _______ _______ _____ _____    ______ ____
ROOT
ATOM      1  O   HOH     1      24.266  14.087  27.657  0.00  0.00    +0.000 OA
ENDROOT
TORSDOF 0
REMARK  Name = ../refined-set-2016/4h3g/4h3g_pocket.pdb
REMARK  217 active torsions:
REMARK  status: ('A' for Active; 'I' for Inactive)
REMARK    1  A    between atoms: _1  and  _3
REMARK    2  A    between atoms: _3  and  _4
REMARK    3  A    between atoms: _3  and  _6
REMARK    4  A    between atoms: _6  and  _7
REMARK    5  A    between atoms: _7  and  _8
REMARK    6  A    between atoms: _8  and  _9
REMARK    7  A    between atoms: _9  and  _10
REMARK    8  A    between atoms: _14  and  _16
REMARK    9  A    between atoms: _16  and  _17
REMARK   10  A    between atoms: _16  and  _19
REMARK   11  A    between atoms: _19  and  _20
REMARK   12  A    between atoms: _22  and  _24
REMARK   13  A    between atoms: _24  and  _25
REMARK   14  A    between atoms: _27  and  _29
REMARK   15  A    between atoms: _29  and  _30
REMARK   16  A    between atoms: _29  and  _32
REMARK   17  A    between atoms: _32  and  _33
REMARK   18  A    between atoms: _33  and  _34
REMARK   19  A    between atoms: _39  and  _41
REMARK   20  A    between atoms: _41  and  _42
REMARK   21  A    between atoms: _44  and  _46
REMARK   22  A    between atoms: _46  and  _47
REMARK   23  A    between atoms: _46  and  _49
REMARK   24  A    between atoms: _49  and  _50
REMARK   25  A    between atoms: _55  and  _56
REMARK   26  A    between atoms: _58  and  _60
REMARK   27  A    between atoms: _60  and  _61
REMARK   28  A    between atoms: _60  and  _63
REMARK   29  A    between atoms: _63  and  _64
REMARK   30  A    between atoms: _67  and  _69
REMARK   31  A    between atoms: _69  and  _70
REMARK   32  A    between atoms: _69  and  _72
REMARK   33  A    between atoms: _75  and  _77
REMARK   34  A    between atoms: _77  and  _78
REMARK   35  A    between atoms: _77  and  _80
REMARK   36  A    between atoms: _80  and  _81
REMARK   37  A    between atoms: _84  and  _86
REMARK   38  A    between atoms: _86  and  _87
REMARK   39  A    between atoms: _86  and  _89
REMARK   40  A    between atoms: _89  and  _90
REMARK   41  A    between atoms: _93  and  _95
REMARK   42  A    between atoms: _95  and  _96
REMARK   43  A    between atoms: _98  and  _100
REMARK   44  A    between atoms: _100  and  _101
REMARK   45  A    between atoms: _100  and  _103
REMARK   46  A    between atoms: _103  and  _104
REMARK   47  A    between atoms: _106  and  _108
REMARK   48  A    between atoms: _108  and  _109
REMARK   49  A    between atoms: _108  and  _111
REMARK   50  A    between atoms: _111  and  _112
REMARK   51  A    between atoms: _114  and  _116
REMARK   52  A    between atoms: _116  and  _117
REMARK   53  A    between atoms: _116  and  _119
REMARK   54  A    between atoms: _119  and  _120
REMARK   55  A    between atoms: _125  and  _127
REMARK   56  A    between atoms: _127  and  _128
REMARK   57  A    between atoms: _127  and  _130
REMARK   58  A    between atoms: _130  and  _131
REMARK   59  A    between atoms: _137  and  _139
REMARK   60  A    between atoms: _139  and  _140
REMARK   61  A    between atoms: _143  and  _145
REMARK   62  A    between atoms: _145  and  _146
REMARK   63  A    between atoms: _145  and  _148
REMARK   64  A    between atoms: _151  and  _153
REMARK   65  A    between atoms: _153  and  _154
REMARK   66  A    between atoms: _153  and  _156
REMARK   67  A    between atoms: _156  and  _157
REMARK   68  A    between atoms: _162  and  _163
REMARK   69  A    between atoms: _165  and  _167
REMARK   70  A    between atoms: _167  and  _168
REMARK   71  A    between atoms: _167  and  _170
REMARK   72  A    between atoms: _174  and  _175
REMARK   73  A    between atoms: _180  and  _182
REMARK   74  A    between atoms: _182  and  _183
REMARK   75  A    between atoms: _182  and  _185
REMARK   76  A    between atoms: _185  and  _186
REMARK   77  A    between atoms: _191  and  _192
REMARK   78  A    between atoms: _194  and  _196
REMARK   79  A    between atoms: _196  and  _197
REMARK   80  A    between atoms: _196  and  _199
REMARK   81  A    between atoms: _199  and  _200
REMARK   82  A    between atoms: _203  and  _205
REMARK   83  A    between atoms: _205  and  _206
REMARK   84  A    between atoms: _205  and  _208
REMARK   85  A    between atoms: _208  and  _209
REMARK   86  A    between atoms: _209  and  _210
REMARK   87  A    between atoms: _215  and  _217
REMARK   88  A    between atoms: _217  and  _218
REMARK   89  A    between atoms: _220  and  _222
REMARK   90  A    between atoms: _222  and  _223
REMARK   91  A    between atoms: _222  and  _225
REMARK   92  A    between atoms: _225  and  _226
REMARK   93  A    between atoms: _226  and  _227
REMARK   94  A    between atoms: _227  and  _228
REMARK   95  A    between atoms: _228  and  _229
REMARK   96  A    between atoms: _233  and  _235
REMARK   97  A    between atoms: _235  and  _236
REMARK   98  A    between atoms: _235  and  _238
REMARK   99  A    between atoms: _238  and  _239
REMARK  100  A    between atoms: _249  and  _251
REMARK  101  A    between atoms: _251  and  _252
REMARK  102  A    between atoms: _251  and  _254
REMARK  103  A    between atoms: _254  and  _255
REMARK  104  A    between atoms: _258  and  _260
REMARK  105  A    between atoms: _260  and  _261
REMARK  106  A    between atoms: _260  and  _263
REMARK  107  A    between atoms: _263  and  _264
REMARK  108  A    between atoms: _264  and  _265
REMARK  109  A    between atoms: _265  and  _266
REMARK  110  A    between atoms: _266  and  _267
REMARK  111  A    between atoms: _271  and  _273
REMARK  112  A    between atoms: _273  and  _274
REMARK  113  A    between atoms: _273  and  _276
REMARK  114  A    between atoms: _276  and  _277
REMARK  115  A    between atoms: _283  and  _285
REMARK  116  A    between atoms: _285  and  _286
REMARK  117  A    between atoms: _285  and  _288
REMARK  118  A    between atoms: _288  and  _289
REMARK  119  A    between atoms: _295  and  _297
REMARK  120  A    between atoms: _297  and  _298
REMARK  121  A    between atoms: _297  and  _300
REMARK  122  A    between atoms: _300  and  _301
REMARK  123  A    between atoms: _304  and  _306
REMARK  124  A    between atoms: _306  and  _307
REMARK  125  A    between atoms: _306  and  _309
REMARK  126  A    between atoms: _309  and  _310
REMARK  127  A    between atoms: _312  and  _314
REMARK  128  A    between atoms: _314  and  _315
REMARK  129  A    between atoms: _314  and  _317
REMARK  130  A    between atoms: _317  and  _318
REMARK  131  A    between atoms: _328  and  _330
REMARK  132  A    between atoms: _330  and  _331
REMARK  133  A    between atoms: _333  and  _335
REMARK  134  A    between atoms: _335  and  _336
REMARK  135  A    between atoms: _335  and  _338
REMARK  136  A    between atoms: _338  and  _339
REMARK  137  A    between atoms: _342  and  _344
REMARK  138  A    between atoms: _344  and  _345
REMARK  139  A    between atoms: _344  and  _347
REMARK  140  A    between atoms: _347  and  _348
REMARK  141  A    between atoms: _351  and  _353
REMARK  142  A    between atoms: _353  and  _354
REMARK  143  A    between atoms: _356  and  _358
REMARK  144  A    between atoms: _358  and  _359
REMARK  145  A    between atoms: _358  and  _361
REMARK  146  A    between atoms: _361  and  _362
REMARK  147  A    between atoms: _365  and  _367
REMARK  148  A    between atoms: _367  and  _368
REMARK  149  A    between atoms: _367  and  _370
REMARK  150  A    between atoms: _370  and  _371
REMARK  151  A    between atoms: _374  and  _376
REMARK  152  A    between atoms: _376  and  _377
REMARK  153  A    between atoms: _380  and  _382
REMARK  154  A    between atoms: _382  and  _383
REMARK  155  A    between atoms: _382  and  _385
REMARK  156  A    between atoms: _385  and  _386
REMARK  157  A    between atoms: _386  and  _387
REMARK  158  A    between atoms: _387  and  _388
REMARK  159  A    between atoms: _397  and  _399
REMARK  160  A    between atoms: _399  and  _400
REMARK  161  A    between atoms: _399  and  _402
REMARK  162  A    between atoms: _402  and  _403
REMARK  163  A    between atoms: _406  and  _408
REMARK  164  A    between atoms: _408  and  _409
REMARK  165  A    between atoms: _408  and  _411
REMARK  166  A    between atoms: _411  and  _412
REMARK  167  A    between atoms: _417  and  _418
REMARK  168  A    between atoms: _420  and  _422
REMARK  169  A    between atoms: _422  and  _423
REMARK  170  A    between atoms: _422  and  _425
REMARK  171  A    between atoms: _425  and  _426
REMARK  172  A    between atoms: _429  and  _431
REMARK  173  A    between atoms: _431  and  _432
REMARK  174  A    between atoms: _431  and  _434
REMARK  175  A    between atoms: _437  and  _439
REMARK  176  A    between atoms: _439  and  _440
REMARK  177  A    between atoms: _439  and  _442
REMARK  178  A    between atoms: _442  and  _443
REMARK  179  A    between atoms: _446  and  _448
REMARK  180  A    between atoms: _448  and  _449
REMARK  181  A    between atoms: _448  and  _451
REMARK  182  A    between atoms: _451  and  _452
REMARK  183  A    between atoms: _454  and  _456
REMARK  184  A    between atoms: _456  and  _457
REMARK  185  A    between atoms: _459  and  _461
REMARK  186  A    between atoms: _461  and  _462
REMARK  187  A    between atoms: _461  and  _464
REMARK  188  A    between atoms: _464  and  _465
REMARK  189  A    between atoms: _468  and  _470
REMARK  190  A    between atoms: _470  and  _471
REMARK  191  A    between atoms: _470  and  _473
REMARK  192  A    between atoms: _473  and  _474
REMARK  193  A    between atoms: _477  and  _479
REMARK  194  A    between atoms: _479  and  _480
REMARK  195  A    between atoms: _479  and  _482
REMARK  196  A    between atoms: _482  and  _483
REMARK  197  A    between atoms: _488  and  _490
REMARK  198  A    between atoms: _490  and  _491
REMARK  199  A    between atoms: _490  and  _493
REMARK  200  A    between atoms: _493  and  _494
REMARK  201  A    between atoms: _494  and  _495
REMARK  202  A    between atoms: _495  and  _496
REMARK  203  A    between atoms: _505  and  _507
REMARK  204  A    between atoms: _507  and  _508
REMARK  205  A    between atoms: _507  and  _510
REMARK  206  A    between atoms: _513  and  _515
REMARK  207  A    between atoms: _515  and  _516
REMARK  208  A    between atoms: _518  and  _520
REMARK  209  A    between atoms: _520  and  _521
REMARK  210  A    between atoms: _524  and  _526
REMARK  211  A    between atoms: _526  and  _527
REMARK  212  A    between atoms: _526  and  _529
REMARK  213  A    between atoms: _532  and  _534
REMARK  214  A    between atoms: _534  and  _535
REMARK  215  A    between atoms: _534  and  _537
REMARK  216  A    between atoms: _537  and  _538
REMARK  217  A    between atoms: _538  and  _539
REMARK                            x       y       z     vdW  Elec       q    Type
REMARK                         _______ _______ _______ _____ _____    ______ ____
ROOT
ATOM      1  O   HOH     1      25.307  15.192  25.467  0.00  0.00    +0.000 OA
ENDROOT
TORSDOF 0
REMARK  Name = ../refined-set-2016/4h3g/4h3g_pocket.pdb
REMARK  217 active torsions:
REMARK  status: ('A' for Active; 'I' for Inactive)
REMARK    1  A    between atoms: _1  and  _3
REMARK    2  A    between atoms: _3  and  _4
REMARK    3  A    between atoms: _3  and  _6
REMARK    4  A    between atoms: _6  and  _7
REMARK    5  A    between atoms: _7  and  _8
REMARK    6  A    between atoms: _8  and  _9
REMARK    7  A    between atoms: _9  and  _10
REMARK    8  A    between atoms: _14  and  _16
REMARK    9  A    between atoms: _16  and  _17
REMARK   10  A    between atoms: _16  and  _19
REMARK   11  A    between atoms: _19  and  _20
REMARK   12  A    between atoms: _22  and  _24
REMARK   13  A    between atoms: _24  and  _25
REMARK   14  A    between atoms: _27  and  _29
REMARK   15  A    between atoms: _29  and  _30
REMARK   16  A    between atoms: _29  and  _32
REMARK   17  A    between atoms: _32  and  _33
REMARK   18  A    between atoms: _33  and  _34
REMARK   19  A    between atoms: _39  and  _41
REMARK   20  A    between atoms: _41  and  _42
REMARK   21  A    between atoms: _44  and  _46
REMARK   22  A    between atoms: _46  and  _47
REMARK   23  A    between atoms: _46  and  _49
REMARK   24  A    between atoms: _49  and  _50
REMARK   25  A    between atoms: _55  and  _56
REMARK   26  A    between atoms: _58  and  _60
REMARK   27  A    between atoms: _60  and  _61
REMARK   28  A    between atoms: _60  and  _63
REMARK   29  A    between atoms: _63  and  _64
REMARK   30  A    between atoms: _67  and  _69
REMARK   31  A    between atoms: _69  and  _70
REMARK   32  A    between atoms: _69  and  _72
REMARK   33  A    between atoms: _75  and  _77
REMARK   34  A    between atoms: _77  and  _78
REMARK   35  A    between atoms: _77  and  _80
REMARK   36  A    between atoms: _80  and  _81
REMARK   37  A    between atoms: _84  and  _86
REMARK   38  A    between atoms: _86  and  _87
REMARK   39  A    between atoms: _86  and  _89
REMARK   40  A    between atoms: _89  and  _90
REMARK   41  A    between atoms: _93  and  _95
REMARK   42  A    between atoms: _95  and  _96
REMARK   43  A    between atoms: _98  and  _100
REMARK   44  A    between atoms: _100  and  _101
REMARK   45  A    between atoms: _100  and  _103
REMARK   46  A    between atoms: _103  and  _104
REMARK   47  A    between atoms: _106  and  _108
REMARK   48  A    between atoms: _108  and  _109
REMARK   49  A    between atoms: _108  and  _111
REMARK   50  A    between atoms: _111  and  _112
REMARK   51  A    between atoms: _114  and  _116
REMARK   52  A    between atoms: _116  and  _117
REMARK   53  A    between atoms: _116  and  _119
REMARK   54  A    between atoms: _119  and  _120
REMARK   55  A    between atoms: _125  and  _127
REMARK   56  A    between atoms: _127  and  _128
REMARK   57  A    between atoms: _127  and  _130
REMARK   58  A    between atoms: _130  and  _131
REMARK   59  A    between atoms: _137  and  _139
REMARK   60  A    between atoms: _139  and  _140
REMARK   61  A    between atoms: _143  and  _145
REMARK   62  A    between atoms: _145  and  _146
REMARK   63  A    between atoms: _145  and  _148
REMARK   64  A    between atoms: _151  and  _153
REMARK   65  A    between atoms: _153  and  _154
REMARK   66  A    between atoms: _153  and  _156
REMARK   67  A    between atoms: _156  and  _157
REMARK   68  A    between atoms: _162  and  _163
REMARK   69  A    between atoms: _165  and  _167
REMARK   70  A    between atoms: _167  and  _168
REMARK   71  A    between atoms: _167  and  _170
REMARK   72  A    between atoms: _174  and  _175
REMARK   73  A    between atoms: _180  and  _182
REMARK   74  A    between atoms: _182  and  _183
REMARK   75  A    between atoms: _182  and  _185
REMARK   76  A    between atoms: _185  and  _186
REMARK   77  A    between atoms: _191  and  _192
REMARK   78  A    between atoms: _194  and  _196
REMARK   79  A    between atoms: _196  and  _197
REMARK   80  A    between atoms: _196  and  _199
REMARK   81  A    between atoms: _199  and  _200
REMARK   82  A    between atoms: _203  and  _205
REMARK   83  A    between atoms: _205  and  _206
REMARK   84  A    between atoms: _205  and  _208
REMARK   85  A    between atoms: _208  and  _209
REMARK   86  A    between atoms: _209  and  _210
REMARK   87  A    between atoms: _215  and  _217
REMARK   88  A    between atoms: _217  and  _218
REMARK   89  A    between atoms: _220  and  _222
REMARK   90  A    between atoms: _222  and  _223
REMARK   91  A    between atoms: _222  and  _225
REMARK   92  A    between atoms: _225  and  _226
REMARK   93  A    between atoms: _226  and  _227
REMARK   94  A    between atoms: _227  and  _228
REMARK   95  A    between atoms: _228  and  _229
REMARK   96  A    between atoms: _233  and  _235
REMARK   97  A    between atoms: _235  and  _236
REMARK   98  A    between atoms: _235  and  _238
REMARK   99  A    between atoms: _238  and  _239
REMARK  100  A    between atoms: _249  and  _251
REMARK  101  A    between atoms: _251  and  _252
REMARK  102  A    between atoms: _251  and  _254
REMARK  103  A    between atoms: _254  and  _255
REMARK  104  A    between atoms: _258  and  _260
REMARK  105  A    between atoms: _260  and  _261
REMARK  106  A    between atoms: _260  and  _263
REMARK  107  A    between atoms: _263  and  _264
REMARK  108  A    between atoms: _264  and  _265
REMARK  109  A    between atoms: _265  and  _266
REMARK  110  A    between atoms: _266  and  _267
REMARK  111  A    between atoms: _271  and  _273
REMARK  112  A    between atoms: _273  and  _274
REMARK  113  A    between atoms: _273  and  _276
REMARK  114  A    between atoms: _276  and  _277
REMARK  115  A    between atoms: _283  and  _285
REMARK  116  A    between atoms: _285  and  _286
REMARK  117  A    between atoms: _285  and  _288
REMARK  118  A    between atoms: _288  and  _289
REMARK  119  A    between atoms: _295  and  _297
REMARK  120  A    between atoms: _297  and  _298
REMARK  121  A    between atoms: _297  and  _300
REMARK  122  A    between atoms: _300  and  _301
REMARK  123  A    between atoms: _304  and  _306
REMARK  124  A    between atoms: _306  and  _307
REMARK  125  A    between atoms: _306  and  _309
REMARK  126  A    between atoms: _309  and  _310
REMARK  127  A    between atoms: _312  and  _314
REMARK  128  A    between atoms: _314  and  _315
REMARK  129  A    between atoms: _314  and  _317
REMARK  130  A    between atoms: _317  and  _318
REMARK  131  A    between atoms: _328  and  _330
REMARK  132  A    between atoms: _330  and  _331
REMARK  133  A    between atoms: _333  and  _335
REMARK  134  A    between atoms: _335  and  _336
REMARK  135  A    between atoms: _335  and  _338
REMARK  136  A    between atoms: _338  and  _339
REMARK  137  A    between atoms: _342  and  _344
REMARK  138  A    between atoms: _344  and  _345
REMARK  139  A    between atoms: _344  and  _347
REMARK  140  A    between atoms: _347  and  _348
REMARK  141  A    between atoms: _351  and  _353
REMARK  142  A    between atoms: _353  and  _354
REMARK  143  A    between atoms: _356  and  _358
REMARK  144  A    between atoms: _358  and  _359
REMARK  145  A    between atoms: _358  and  _361
REMARK  146  A    between atoms: _361  and  _362
REMARK  147  A    between atoms: _365  and  _367
REMARK  148  A    between atoms: _367  and  _368
REMARK  149  A    between atoms: _367  and  _370
REMARK  150  A    between atoms: _370  and  _371
REMARK  151  A    between atoms: _374  and  _376
REMARK  152  A    between atoms: _376  and  _377
REMARK  153  A    between atoms: _380  and  _382
REMARK  154  A    between atoms: _382  and  _383
REMARK  155  A    between atoms: _382  and  _385
REMARK  156  A    between atoms: _385  and  _386
REMARK  157  A    between atoms: _386  and  _387
REMARK  158  A    between atoms: _387  and  _388
REMARK  159  A    between atoms: _397  and  _399
REMARK  160  A    between atoms: _399  and  _400
REMARK  161  A    between atoms: _399  and  _402
REMARK  162  A    between atoms: _402  and  _403
REMARK  163  A    between atoms: _406  and  _408
REMARK  164  A    between atoms: _408  and  _409
REMARK  165  A    between atoms: _408  and  _411
REMARK  166  A    between atoms: _411  and  _412
REMARK  167  A    between atoms: _417  and  _418
REMARK  168  A    between atoms: _420  and  _422
REMARK  169  A    between atoms: _422  and  _423
REMARK  170  A    between atoms: _422  and  _425
REMARK  171  A    between atoms: _425  and  _426
REMARK  172  A    between atoms: _429  and  _431
REMARK  173  A    between atoms: _431  and  _432
REMARK  174  A    between atoms: _431  and  _434
REMARK  175  A    between atoms: _437  and  _439
REMARK  176  A    between atoms: _439  and  _440
REMARK  177  A    between atoms: _439  and  _442
REMARK  178  A    between atoms: _442  and  _443
REMARK  179  A    between atoms: _446  and  _448
REMARK  180  A    between atoms: _448  and  _449
REMARK  181  A    between atoms: _448  and  _451
REMARK  182  A    between atoms: _451  and  _452
REMARK  183  A    between atoms: _454  and  _456
REMARK  184  A    between atoms: _456  and  _457
REMARK  185  A    between atoms: _459  and  _461
REMARK  186  A    between atoms: _461  and  _462
REMARK  187  A    between atoms: _461  and  _464
REMARK  188  A    between atoms: _464  and  _465
REMARK  189  A    between atoms: _468  and  _470
REMARK  190  A    between atoms: _470  and  _471
REMARK  191  A    between atoms: _470  and  _473
REMARK  192  A    between atoms: _473  and  _474
REMARK  193  A    between atoms: _477  and  _479
REMARK  194  A    between atoms: _479  and  _480
REMARK  195  A    between atoms: _479  and  _482
REMARK  196  A    between atoms: _482  and  _483
REMARK  197  A    between atoms: _488  and  _490
REMARK  198  A    between atoms: _490  and  _491
REMARK  199  A    between atoms: _490  and  _493
REMARK  200  A    between atoms: _493  and  _494
REMARK  201  A    between atoms: _494  and  _495
REMARK  202  A    between atoms: _495  and  _496
REMARK  203  A    between atoms: _505  and  _507
REMARK  204  A    between atoms: _507  and  _508
REMARK  205  A    between atoms: _507  and  _510
REMARK  206  A    between atoms: _513  and  _515
REMARK  207  A    between atoms: _515  and  _516
REMARK  208  A    between atoms: _518  and  _520
REMARK  209  A    between atoms: _520  and  _521
REMARK  210  A    between atoms: _524  and  _526
REMARK  211  A    between atoms: _526  and  _527
REMARK  212  A    between atoms: _526  and  _529
REMARK  213  A    between atoms: _532  and  _534
REMARK  214  A    between atoms: _534  and  _535
REMARK  215  A    between atoms: _534  and  _537
REMARK  216  A    between atoms: _537  and  _538
REMARK  217  A    between atoms: _538  and  _539
REMARK                            x       y       z     vdW  Elec       q    Type
REMARK                         _______ _______ _______ _____ _____    ______ ____
ROOT
ATOM      1  O   HOH     1      21.657  13.760  28.178  0.00  0.00    +0.000 OA
ENDROOT
TORSDOF 0
REMARK  Name = ../refined-set-2016/4h3g/4h3g_pocket.pdb
REMARK  217 active torsions:
REMARK  status: ('A' for Active; 'I' for Inactive)
REMARK    1  A    between atoms: _1  and  _3
REMARK    2  A    between atoms: _3  and  _4
REMARK    3  A    between atoms: _3  and  _6
REMARK    4  A    between atoms: _6  and  _7
REMARK    5  A    between atoms: _7  and  _8
REMARK    6  A    between atoms: _8  and  _9
REMARK    7  A    between atoms: _9  and  _10
REMARK    8  A    between atoms: _14  and  _16
REMARK    9  A    between atoms: _16  and  _17
REMARK   10  A    between atoms: _16  and  _19
REMARK   11  A    between atoms: _19  and  _20
REMARK   12  A    between atoms: _22  and  _24
REMARK   13  A    between atoms: _24  and  _25
REMARK   14  A    between atoms: _27  and  _29
REMARK   15  A    between atoms: _29  and  _30
REMARK   16  A    between atoms: _29  and  _32
REMARK   17  A    between atoms: _32  and  _33
REMARK   18  A    between atoms: _33  and  _34
REMARK   19  A    between atoms: _39  and  _41
REMARK   20  A    between atoms: _41  and  _42
REMARK   21  A    between atoms: _44  and  _46
REMARK   22  A    between atoms: _46  and  _47
REMARK   23  A    between atoms: _46  and  _49
REMARK   24  A    between atoms: _49  and  _50
REMARK   25  A    between atoms: _55  and  _56
REMARK   26  A    between atoms: _58  and  _60
REMARK   27  A    between atoms: _60  and  _61
REMARK   28  A    between atoms: _60  and  _63
REMARK   29  A    between atoms: _63  and  _64
REMARK   30  A    between atoms: _67  and  _69
REMARK   31  A    between atoms: _69  and  _70
REMARK   32  A    between atoms: _69  and  _72
REMARK   33  A    between atoms: _75  and  _77
REMARK   34  A    between atoms: _77  and  _78
REMARK   35  A    between atoms: _77  and  _80
REMARK   36  A    between atoms: _80  and  _81
REMARK   37  A    between atoms: _84  and  _86
REMARK   38  A    between atoms: _86  and  _87
REMARK   39  A    between atoms: _86  and  _89
REMARK   40  A    between atoms: _89  and  _90
REMARK   41  A    between atoms: _93  and  _95
REMARK   42  A    between atoms: _95  and  _96
REMARK   43  A    between atoms: _98  and  _100
REMARK   44  A    between atoms: _100  and  _101
REMARK   45  A    between atoms: _100  and  _103
REMARK   46  A    between atoms: _103  and  _104
REMARK   47  A    between atoms: _106  and  _108
REMARK   48  A    between atoms: _108  and  _109
REMARK   49  A    between atoms: _108  and  _111
REMARK   50  A    between atoms: _111  and  _112
REMARK   51  A    between atoms: _114  and  _116
REMARK   52  A    between atoms: _116  and  _117
REMARK   53  A    between atoms: _116  and  _119
REMARK   54  A    between atoms: _119  and  _120
REMARK   55  A    between atoms: _125  and  _127
REMARK   56  A    between atoms: _127  and  _128
REMARK   57  A    between atoms: _127  and  _130
REMARK   58  A    between atoms: _130  and  _131
REMARK   59  A    between atoms: _137  and  _139
REMARK   60  A    between atoms: _139  and  _140
REMARK   61  A    between atoms: _143  and  _145
REMARK   62  A    between atoms: _145  and  _146
REMARK   63  A    between atoms: _145  and  _148
REMARK   64  A    between atoms: _151  and  _153
REMARK   65  A    between atoms: _153  and  _154
REMARK   66  A    between atoms: _153  and  _156
REMARK   67  A    between atoms: _156  and  _157
REMARK   68  A    between atoms: _162  and  _163
REMARK   69  A    between atoms: _165  and  _167
REMARK   70  A    between atoms: _167  and  _168
REMARK   71  A    between atoms: _167  and  _170
REMARK   72  A    between atoms: _174  and  _175
REMARK   73  A    between atoms: _180  and  _182
REMARK   74  A    between atoms: _182  and  _183
REMARK   75  A    between atoms: _182  and  _185
REMARK   76  A    between atoms: _185  and  _186
REMARK   77  A    between atoms: _191  and  _192
REMARK   78  A    between atoms: _194  and  _196
REMARK   79  A    between atoms: _196  and  _197
REMARK   80  A    between atoms: _196  and  _199
REMARK   81  A    between atoms: _199  and  _200
REMARK   82  A    between atoms: _203  and  _205
REMARK   83  A    between atoms: _205  and  _206
REMARK   84  A    between atoms: _205  and  _208
REMARK   85  A    between atoms: _208  and  _209
REMARK   86  A    between atoms: _209  and  _210
REMARK   87  A    between atoms: _215  and  _217
REMARK   88  A    between atoms: _217  and  _218
REMARK   89  A    between atoms: _220  and  _222
REMARK   90  A    between atoms: _222  and  _223
REMARK   91  A    between atoms: _222  and  _225
REMARK   92  A    between atoms: _225  and  _226
REMARK   93  A    between atoms: _226  and  _227
REMARK   94  A    between atoms: _227  and  _228
REMARK   95  A    between atoms: _228  and  _229
REMARK   96  A    between atoms: _233  and  _235
REMARK   97  A    between atoms: _235  and  _236
REMARK   98  A    between atoms: _235  and  _238
REMARK   99  A    between atoms: _238  and  _239
REMARK  100  A    between atoms: _249  and  _251
REMARK  101  A    between atoms: _251  and  _252
REMARK  102  A    between atoms: _251  and  _254
REMARK  103  A    between atoms: _254  and  _255
REMARK  104  A    between atoms: _258  and  _260
REMARK  105  A    between atoms: _260  and  _261
REMARK  106  A    between atoms: _260  and  _263
REMARK  107  A    between atoms: _263  and  _264
REMARK  108  A    between atoms: _264  and  _265
REMARK  109  A    between atoms: _265  and  _266
REMARK  110  A    between atoms: _266  and  _267
REMARK  111  A    between atoms: _271  and  _273
REMARK  112  A    between atoms: _273  and  _274
REMARK  113  A    between atoms: _273  and  _276
REMARK  114  A    between atoms: _276  and  _277
REMARK  115  A    between atoms: _283  and  _285
REMARK  116  A    between atoms: _285  and  _286
REMARK  117  A    between atoms: _285  and  _288
REMARK  118  A    between atoms: _288  and  _289
REMARK  119  A    between atoms: _295  and  _297
REMARK  120  A    between atoms: _297  and  _298
REMARK  121  A    between atoms: _297  and  _300
REMARK  122  A    between atoms: _300  and  _301
REMARK  123  A    between atoms: _304  and  _306
REMARK  124  A    between atoms: _306  and  _307
REMARK  125  A    between atoms: _306  and  _309
REMARK  126  A    between atoms: _309  and  _310
REMARK  127  A    between atoms: _312  and  _314
REMARK  128  A    between atoms: _314  and  _315
REMARK  129  A    between atoms: _314  and  _317
REMARK  130  A    between atoms: _317  and  _318
REMARK  131  A    between atoms: _328  and  _330
REMARK  132  A    between atoms: _330  and  _331
REMARK  133  A    between atoms: _333  and  _335
REMARK  134  A    between atoms: _335  and  _336
REMARK  135  A    between atoms: _335  and  _338
REMARK  136  A    between atoms: _338  and  _339
REMARK  137  A    between atoms: _342  and  _344
REMARK  138  A    between atoms: _344  and  _345
REMARK  139  A    between atoms: _344  and  _347
REMARK  140  A    between atoms: _347  and  _348
REMARK  141  A    between atoms: _351  and  _353
REMARK  142  A    between atoms: _353  and  _354
REMARK  143  A    between atoms: _356  and  _358
REMARK  144  A    between atoms: _358  and  _359
REMARK  145  A    between atoms: _358  and  _361
REMARK  146  A    between atoms: _361  and  _362
REMARK  147  A    between atoms: _365  and  _367
REMARK  148  A    between atoms: _367  and  _368
REMARK  149  A    between atoms: _367  and  _370
REMARK  150  A    between atoms: _370  and  _371
REMARK  151  A    between atoms: _374  and  _376
REMARK  152  A    between atoms: _376  and  _377
REMARK  153  A    between atoms: _380  and  _382
REMARK  154  A    between atoms: _382  and  _383
REMARK  155  A    between atoms: _382  and  _385
REMARK  156  A    between atoms: _385  and  _386
REMARK  157  A    between atoms: _386  and  _387
REMARK  158  A    between atoms: _387  and  _388
REMARK  159  A    between atoms: _397  and  _399
REMARK  160  A    between atoms: _399  and  _400
REMARK  161  A    between atoms: _399  and  _402
REMARK  162  A    between atoms: _402  and  _403
REMARK  163  A    between atoms: _406  and  _408
REMARK  164  A    between atoms: _408  and  _409
REMARK  165  A    between atoms: _408  and  _411
REMARK  166  A    between atoms: _411  and  _412
REMARK  167  A    between atoms: _417  and  _418
REMARK  168  A    between atoms: _420  and  _422
REMARK  169  A    between atoms: _422  and  _423
REMARK  170  A    between atoms: _422  and  _425
REMARK  171  A    between atoms: _425  and  _426
REMARK  172  A    between atoms: _429  and  _431
REMARK  173  A    between atoms: _431  and  _432
REMARK  174  A    between atoms: _431  and  _434
REMARK  175  A    between atoms: _437  and  _439
REMARK  176  A    between atoms: _439  and  _440
REMARK  177  A    between atoms: _439  and  _442
REMARK  178  A    between atoms: _442  and  _443
REMARK  179  A    between atoms: _446  and  _448
REMARK  180  A    between atoms: _448  and  _449
REMARK  181  A    between atoms: _448  and  _451
REMARK  182  A    between atoms: _451  and  _452
REMARK  183  A    between atoms: _454  and  _456
REMARK  184  A    between atoms: _456  and  _457
REMARK  185  A    between atoms: _459  and  _461
REMARK  186  A    between atoms: _461  and  _462
REMARK  187  A    between atoms: _461  and  _464
REMARK  188  A    between atoms: _464  and  _465
REMARK  189  A    between atoms: _468  and  _470
REMARK  190  A    between atoms: _470  and  _471
REMARK  191  A    between atoms: _470  and  _473
REMARK  192  A    between atoms: _473  and  _474
REMARK  193  A    between atoms: _477  and  _479
REMARK  194  A    between atoms: _479  and  _480
REMARK  195  A    between atoms: _479  and  _482
REMARK  196  A    between atoms: _482  and  _483
REMARK  197  A    between atoms: _488  and  _490
REMARK  198  A    between atoms: _490  and  _491
REMARK  199  A    between atoms: _490  and  _493
REMARK  200  A    between atoms: _493  and  _494
REMARK  201  A    between atoms: _494  and  _495
REMARK  202  A    between atoms: _495  and  _496
REMARK  203  A    between atoms: _505  and  _507
REMARK  204  A    between atoms: _507  and  _508
REMARK  205  A    between atoms: _507  and  _510
REMARK  206  A    between atoms: _513  and  _515
REMARK  207  A    between atoms: _515  and  _516
REMARK  208  A    between atoms: _518  and  _520
REMARK  209  A    between atoms: _520  and  _521
REMARK  210  A    between atoms: _524  and  _526
REMARK  211  A    between atoms: _526  and  _527
REMARK  212  A    between atoms: _526  and  _529
REMARK  213  A    between atoms: _532  and  _534
REMARK  214  A    between atoms: _534  and  _535
REMARK  215  A    between atoms: _534  and  _537
REMARK  216  A    between atoms: _537  and  _538
REMARK  217  A    between atoms: _538  and  _539
REMARK                            x       y       z     vdW  Elec       q    Type
REMARK                         _______ _______ _______ _____ _____    ______ ____
ROOT
ATOM      1  O   HOH     1      23.926  14.942  17.444  0.00  0.00    +0.000 OA
ENDROOT
TORSDOF 0
REMARK  Name = ../refined-set-2016/4h3g/4h3g_pocket.pdb
REMARK  217 active torsions:
REMARK  status: ('A' for Active; 'I' for Inactive)
REMARK    1  A    between atoms: _1  and  _3
REMARK    2  A    between atoms: _3  and  _4
REMARK    3  A    between atoms: _3  and  _6
REMARK    4  A    between atoms: _6  and  _7
REMARK    5  A    between atoms: _7  and  _8
REMARK    6  A    between atoms: _8  and  _9
REMARK    7  A    between atoms: _9  and  _10
REMARK    8  A    between atoms: _14  and  _16
REMARK    9  A    between atoms: _16  and  _17
REMARK   10  A    between atoms: _16  and  _19
REMARK   11  A    between atoms: _19  and  _20
REMARK   12  A    between atoms: _22  and  _24
REMARK   13  A    between atoms: _24  and  _25
REMARK   14  A    between atoms: _27  and  _29
REMARK   15  A    between atoms: _29  and  _30
REMARK   16  A    between atoms: _29  and  _32
REMARK   17  A    between atoms: _32  and  _33
REMARK   18  A    between atoms: _33  and  _34
REMARK   19  A    between atoms: _39  and  _41
REMARK   20  A    between atoms: _41  and  _42
REMARK   21  A    between atoms: _44  and  _46
REMARK   22  A    between atoms: _46  and  _47
REMARK   23  A    between atoms: _46  and  _49
REMARK   24  A    between atoms: _49  and  _50
REMARK   25  A    between atoms: _55  and  _56
REMARK   26  A    between atoms: _58  and  _60
REMARK   27  A    between atoms: _60  and  _61
REMARK   28  A    between atoms: _60  and  _63
REMARK   29  A    between atoms: _63  and  _64
REMARK   30  A    between atoms: _67  and  _69
REMARK   31  A    between atoms: _69  and  _70
REMARK   32  A    between atoms: _69  and  _72
REMARK   33  A    between atoms: _75  and  _77
REMARK   34  A    between atoms: _77  and  _78
REMARK   35  A    between atoms: _77  and  _80
REMARK   36  A    between atoms: _80  and  _81
REMARK   37  A    between atoms: _84  and  _86
REMARK   38  A    between atoms: _86  and  _87
REMARK   39  A    between atoms: _86  and  _89
REMARK   40  A    between atoms: _89  and  _90
REMARK   41  A    between atoms: _93  and  _95
REMARK   42  A    between atoms: _95  and  _96
REMARK   43  A    between atoms: _98  and  _100
REMARK   44  A    between atoms: _100  and  _101
REMARK   45  A    between atoms: _100  and  _103
REMARK   46  A    between atoms: _103  and  _104
REMARK   47  A    between atoms: _106  and  _108
REMARK   48  A    between atoms: _108  and  _109
REMARK   49  A    between atoms: _108  and  _111
REMARK   50  A    between atoms: _111  and  _112
REMARK   51  A    between atoms: _114  and  _116
REMARK   52  A    between atoms: _116  and  _117
REMARK   53  A    between atoms: _116  and  _119
REMARK   54  A    between atoms: _119  and  _120
REMARK   55  A    between atoms: _125  and  _127
REMARK   56  A    between atoms: _127  and  _128
REMARK   57  A    between atoms: _127  and  _130
REMARK   58  A    between atoms: _130  and  _131
REMARK   59  A    between atoms: _137  and  _139
REMARK   60  A    between atoms: _139  and  _140
REMARK   61  A    between atoms: _143  and  _145
REMARK   62  A    between atoms: _145  and  _146
REMARK   63  A    between atoms: _145  and  _148
REMARK   64  A    between atoms: _151  and  _153
REMARK   65  A    between atoms: _153  and  _154
REMARK   66  A    between atoms: _153  and  _156
REMARK   67  A    between atoms: _156  and  _157
REMARK   68  A    between atoms: _162  and  _163
REMARK   69  A    between atoms: _165  and  _167
REMARK   70  A    between atoms: _167  and  _168
REMARK   71  A    between atoms: _167  and  _170
REMARK   72  A    between atoms: _174  and  _175
REMARK   73  A    between atoms: _180  and  _182
REMARK   74  A    between atoms: _182  and  _183
REMARK   75  A    between atoms: _182  and  _185
REMARK   76  A    between atoms: _185  and  _186
REMARK   77  A    between atoms: _191  and  _192
REMARK   78  A    between atoms: _194  and  _196
REMARK   79  A    between atoms: _196  and  _197
REMARK   80  A    between atoms: _196  and  _199
REMARK   81  A    between atoms: _199  and  _200
REMARK   82  A    between atoms: _203  and  _205
REMARK   83  A    between atoms: _205  and  _206
REMARK   84  A    between atoms: _205  and  _208
REMARK   85  A    between atoms: _208  and  _209
REMARK   86  A    between atoms: _209  and  _210
REMARK   87  A    between atoms: _215  and  _217
REMARK   88  A    between atoms: _217  and  _218
REMARK   89  A    between atoms: _220  and  _222
REMARK   90  A    between atoms: _222  and  _223
REMARK   91  A    between atoms: _222  and  _225
REMARK   92  A    between atoms: _225  and  _226
REMARK   93  A    between atoms: _226  and  _227
REMARK   94  A    between atoms: _227  and  _228
REMARK   95  A    between atoms: _228  and  _229
REMARK   96  A    between atoms: _233  and  _235
REMARK   97  A    between atoms: _235  and  _236
REMARK   98  A    between atoms: _235  and  _238
REMARK   99  A    between atoms: _238  and  _239
REMARK  100  A    between atoms: _249  and  _251
REMARK  101  A    between atoms: _251  and  _252
REMARK  102  A    between atoms: _251  and  _254
REMARK  103  A    between atoms: _254  and  _255
REMARK  104  A    between atoms: _258  and  _260
REMARK  105  A    between atoms: _260  and  _261
REMARK  106  A    between atoms: _260  and  _263
REMARK  107  A    between atoms: _263  and  _264
REMARK  108  A    between atoms: _264  and  _265
REMARK  109  A    between atoms: _265  and  _266
REMARK  110  A    between atoms: _266  and  _267
REMARK  111  A    between atoms: _271  and  _273
REMARK  112  A    between atoms: _273  and  _274
REMARK  113  A    between atoms: _273  and  _276
REMARK  114  A    between atoms: _276  and  _277
REMARK  115  A    between atoms: _283  and  _285
REMARK  116  A    between atoms: _285  and  _286
REMARK  117  A    between atoms: _285  and  _288
REMARK  118  A    between atoms: _288  and  _289
REMARK  119  A    between atoms: _295  and  _297
REMARK  120  A    between atoms: _297  and  _298
REMARK  121  A    between atoms: _297  and  _300
REMARK  122  A    between atoms: _300  and  _301
REMARK  123  A    between atoms: _304  and  _306
REMARK  124  A    between atoms: _306  and  _307
REMARK  125  A    between atoms: _306  and  _309
REMARK  126  A    between atoms: _309  and  _310
REMARK  127  A    between atoms: _312  and  _314
REMARK  128  A    between atoms: _314  and  _315
REMARK  129  A    between atoms: _314  and  _317
REMARK  130  A    between atoms: _317  and  _318
REMARK  131  A    between atoms: _328  and  _330
REMARK  132  A    between atoms: _330  and  _331
REMARK  133  A    between atoms: _333  and  _335
REMARK  134  A    between atoms: _335  and  _336
REMARK  135  A    between atoms: _335  and  _338
REMARK  136  A    between atoms: _338  and  _339
REMARK  137  A    between atoms: _342  and  _344
REMARK  138  A    between atoms: _344  and  _345
REMARK  139  A    between atoms: _344  and  _347
REMARK  140  A    between atoms: _347  and  _348
REMARK  141  A    between atoms: _351  and  _353
REMARK  142  A    between atoms: _353  and  _354
REMARK  143  A    between atoms: _356  and  _358
REMARK  144  A    between atoms: _358  and  _359
REMARK  145  A    between atoms: _358  and  _361
REMARK  146  A    between atoms: _361  and  _362
REMARK  147  A    between atoms: _365  and  _367
REMARK  148  A    between atoms: _367  and  _368
REMARK  149  A    between atoms: _367  and  _370
REMARK  150  A    between atoms: _370  and  _371
REMARK  151  A    between atoms: _374  and  _376
REMARK  152  A    between atoms: _376  and  _377
REMARK  153  A    between atoms: _380  and  _382
REMARK  154  A    between atoms: _382  and  _383
REMARK  155  A    between atoms: _382  and  _385
REMARK  156  A    between atoms: _385  and  _386
REMARK  157  A    between atoms: _386  and  _387
REMARK  158  A    between atoms: _387  and  _388
REMARK  159  A    between atoms: _397  and  _399
REMARK  160  A    between atoms: _399  and  _400
REMARK  161  A    between atoms: _399  and  _402
REMARK  162  A    between atoms: _402  and  _403
REMARK  163  A    between atoms: _406  and  _408
REMARK  164  A    between atoms: _408  and  _409
REMARK  165  A    between atoms: _408  and  _411
REMARK  166  A    between atoms: _411  and  _412
REMARK  167  A    between atoms: _417  and  _418
REMARK  168  A    between atoms: _420  and  _422
REMARK  169  A    between atoms: _422  and  _423
REMARK  170  A    between atoms: _422  and  _425
REMARK  171  A    between atoms: _425  and  _426
REMARK  172  A    between atoms: _429  and  _431
REMARK  173  A    between atoms: _431  and  _432
REMARK  174  A    between atoms: _431  and  _434
REMARK  175  A    between atoms: _437  and  _439
REMARK  176  A    between atoms: _439  and  _440
REMARK  177  A    between atoms: _439  and  _442
REMARK  178  A    between atoms: _442  and  _443
REMARK  179  A    between atoms: _446  and  _448
REMARK  180  A    between atoms: _448  and  _449
REMARK  181  A    between atoms: _448  and  _451
REMARK  182  A    between atoms: _451  and  _452
REMARK  183  A    between atoms: _454  and  _456
REMARK  184  A    between atoms: _456  and  _457
REMARK  185  A    between atoms: _459  and  _461
REMARK  186  A    between atoms: _461  and  _462
REMARK  187  A    between atoms: _461  and  _464
REMARK  188  A    between atoms: _464  and  _465
REMARK  189  A    between atoms: _468  and  _470
REMARK  190  A    between atoms: _470  and  _471
REMARK  191  A    between atoms: _470  and  _473
REMARK  192  A    between atoms: _473  and  _474
REMARK  193  A    between atoms: _477  and  _479
REMARK  194  A    between atoms: _479  and  _480
REMARK  195  A    between atoms: _479  and  _482
REMARK  196  A    between atoms: _482  and  _483
REMARK  197  A    between atoms: _488  and  _490
REMARK  198  A    between atoms: _490  and  _491
REMARK  199  A    between atoms: _490  and  _493
REMARK  200  A    between atoms: _493  and  _494
REMARK  201  A    between atoms: _494  and  _495
REMARK  202  A    between atoms: _495  and  _496
REMARK  203  A    between atoms: _505  and  _507
REMARK  204  A    between atoms: _507  and  _508
REMARK  205  A    between atoms: _507  and  _510
REMARK  206  A    between atoms: _513  and  _515
REMARK  207  A    between atoms: _515  and  _516
REMARK  208  A    between atoms: _518  and  _520
REMARK  209  A    between atoms: _520  and  _521
REMARK  210  A    between atoms: _524  and  _526
REMARK  211  A    between atoms: _526  and  _527
REMARK  212  A    between atoms: _526  and  _529
REMARK  213  A    between atoms: _532  and  _534
REMARK  214  A    between atoms: _534  and  _535
REMARK  215  A    between atoms: _534  and  _537
REMARK  216  A    between atoms: _537  and  _538
REMARK  217  A    between atoms: _538  and  _539
REMARK                            x       y       z     vdW  Elec       q    Type
REMARK                         _______ _______ _______ _____ _____    ______ ____
ROOT
ATOM      1  O   HOH     1      26.114  13.535  23.177  0.00  0.00    +0.000 OA
ENDROOT
TORSDOF 0
REMARK  Name = ../refined-set-2016/4h3g/4h3g_pocket.pdb
REMARK  217 active torsions:
REMARK  status: ('A' for Active; 'I' for Inactive)
REMARK    1  A    between atoms: _1  and  _3
REMARK    2  A    between atoms: _3  and  _4
REMARK    3  A    between atoms: _3  and  _6
REMARK    4  A    between atoms: _6  and  _7
REMARK    5  A    between atoms: _7  and  _8
REMARK    6  A    between atoms: _8  and  _9
REMARK    7  A    between atoms: _9  and  _10
REMARK    8  A    between atoms: _14  and  _16
REMARK    9  A    between atoms: _16  and  _17
REMARK   10  A    between atoms: _16  and  _19
REMARK   11  A    between atoms: _19  and  _20
REMARK   12  A    between atoms: _22  and  _24
REMARK   13  A    between atoms: _24  and  _25
REMARK   14  A    between atoms: _27  and  _29
REMARK   15  A    between atoms: _29  and  _30
REMARK   16  A    between atoms: _29  and  _32
REMARK   17  A    between atoms: _32  and  _33
REMARK   18  A    between atoms: _33  and  _34
REMARK   19  A    between atoms: _39  and  _41
REMARK   20  A    between atoms: _41  and  _42
REMARK   21  A    between atoms: _44  and  _46
REMARK   22  A    between atoms: _46  and  _47
REMARK   23  A    between atoms: _46  and  _49
REMARK   24  A    between atoms: _49  and  _50
REMARK   25  A    between atoms: _55  and  _56
REMARK   26  A    between atoms: _58  and  _60
REMARK   27  A    between atoms: _60  and  _61
REMARK   28  A    between atoms: _60  and  _63
REMARK   29  A    between atoms: _63  and  _64
REMARK   30  A    between atoms: _67  and  _69
REMARK   31  A    between atoms: _69  and  _70
REMARK   32  A    between atoms: _69  and  _72
REMARK   33  A    between atoms: _75  and  _77
REMARK   34  A    between atoms: _77  and  _78
REMARK   35  A    between atoms: _77  and  _80
REMARK   36  A    between atoms: _80  and  _81
REMARK   37  A    between atoms: _84  and  _86
REMARK   38  A    between atoms: _86  and  _87
REMARK   39  A    between atoms: _86  and  _89
REMARK   40  A    between atoms: _89  and  _90
REMARK   41  A    between atoms: _93  and  _95
REMARK   42  A    between atoms: _95  and  _96
REMARK   43  A    between atoms: _98  and  _100
REMARK   44  A    between atoms: _100  and  _101
REMARK   45  A    between atoms: _100  and  _103
REMARK   46  A    between atoms: _103  and  _104
REMARK   47  A    between atoms: _106  and  _108
REMARK   48  A    between atoms: _108  and  _109
REMARK   49  A    between atoms: _108  and  _111
REMARK   50  A    between atoms: _111  and  _112
REMARK   51  A    between atoms: _114  and  _116
REMARK   52  A    between atoms: _116  and  _117
REMARK   53  A    between atoms: _116  and  _119
REMARK   54  A    between atoms: _119  and  _120
REMARK   55  A    between atoms: _125  and  _127
REMARK   56  A    between atoms: _127  and  _128
REMARK   57  A    between atoms: _127  and  _130
REMARK   58  A    between atoms: _130  and  _131
REMARK   59  A    between atoms: _137  and  _139
REMARK   60  A    between atoms: _139  and  _140
REMARK   61  A    between atoms: _143  and  _145
REMARK   62  A    between atoms: _145  and  _146
REMARK   63  A    between atoms: _145  and  _148
REMARK   64  A    between atoms: _151  and  _153
REMARK   65  A    between atoms: _153  and  _154
REMARK   66  A    between atoms: _153  and  _156
REMARK   67  A    between atoms: _156  and  _157
REMARK   68  A    between atoms: _162  and  _163
REMARK   69  A    between atoms: _165  and  _167
REMARK   70  A    between atoms: _167  and  _168
REMARK   71  A    between atoms: _167  and  _170
REMARK   72  A    between atoms: _174  and  _175
REMARK   73  A    between atoms: _180  and  _182
REMARK   74  A    between atoms: _182  and  _183
REMARK   75  A    between atoms: _182  and  _185
REMARK   76  A    between atoms: _185  and  _186
REMARK   77  A    between atoms: _191  and  _192
REMARK   78  A    between atoms: _194  and  _196
REMARK   79  A    between atoms: _196  and  _197
REMARK   80  A    between atoms: _196  and  _199
REMARK   81  A    between atoms: _199  and  _200
REMARK   82  A    between atoms: _203  and  _205
REMARK   83  A    between atoms: _205  and  _206
REMARK   84  A    between atoms: _205  and  _208
REMARK   85  A    between atoms: _208  and  _209
REMARK   86  A    between atoms: _209  and  _210
REMARK   87  A    between atoms: _215  and  _217
REMARK   88  A    between atoms: _217  and  _218
REMARK   89  A    between atoms: _220  and  _222
REMARK   90  A    between atoms: _222  and  _223
REMARK   91  A    between atoms: _222  and  _225
REMARK   92  A    between atoms: _225  and  _226
REMARK   93  A    between atoms: _226  and  _227
REMARK   94  A    between atoms: _227  and  _228
REMARK   95  A    between atoms: _228  and  _229
REMARK   96  A    between atoms: _233  and  _235
REMARK   97  A    between atoms: _235  and  _236
REMARK   98  A    between atoms: _235  and  _238
REMARK   99  A    between atoms: _238  and  _239
REMARK  100  A    between atoms: _249  and  _251
REMARK  101  A    between atoms: _251  and  _252
REMARK  102  A    between atoms: _251  and  _254
REMARK  103  A    between atoms: _254  and  _255
REMARK  104  A    between atoms: _258  and  _260
REMARK  105  A    between atoms: _260  and  _261
REMARK  106  A    between atoms: _260  and  _263
REMARK  107  A    between atoms: _263  and  _264
REMARK  108  A    between atoms: _264  and  _265
REMARK  109  A    between atoms: _265  and  _266
REMARK  110  A    between atoms: _266  and  _267
REMARK  111  A    between atoms: _271  and  _273
REMARK  112  A    between atoms: _273  and  _274
REMARK  113  A    between atoms: _273  and  _276
REMARK  114  A    between atoms: _276  and  _277
REMARK  115  A    between atoms: _283  and  _285
REMARK  116  A    between atoms: _285  and  _286
REMARK  117  A    between atoms: _285  and  _288
REMARK  118  A    between atoms: _288  and  _289
REMARK  119  A    between atoms: _295  and  _297
REMARK  120  A    between atoms: _297  and  _298
REMARK  121  A    between atoms: _297  and  _300
REMARK  122  A    between atoms: _300  and  _301
REMARK  123  A    between atoms: _304  and  _306
REMARK  124  A    between atoms: _306  and  _307
REMARK  125  A    between atoms: _306  and  _309
REMARK  126  A    between atoms: _309  and  _310
REMARK  127  A    between atoms: _312  and  _314
REMARK  128  A    between atoms: _314  and  _315
REMARK  129  A    between atoms: _314  and  _317
REMARK  130  A    between atoms: _317  and  _318
REMARK  131  A    between atoms: _328  and  _330
REMARK  132  A    between atoms: _330  and  _331
REMARK  133  A    between atoms: _333  and  _335
REMARK  134  A    between atoms: _335  and  _336
REMARK  135  A    between atoms: _335  and  _338
REMARK  136  A    between atoms: _338  and  _339
REMARK  137  A    between atoms: _342  and  _344
REMARK  138  A    between atoms: _344  and  _345
REMARK  139  A    between atoms: _344  and  _347
REMARK  140  A    between atoms: _347  and  _348
REMARK  141  A    between atoms: _351  and  _353
REMARK  142  A    between atoms: _353  and  _354
REMARK  143  A    between atoms: _356  and  _358
REMARK  144  A    between atoms: _358  and  _359
REMARK  145  A    between atoms: _358  and  _361
REMARK  146  A    between atoms: _361  and  _362
REMARK  147  A    between atoms: _365  and  _367
REMARK  148  A    between atoms: _367  and  _368
REMARK  149  A    between atoms: _367  and  _370
REMARK  150  A    between atoms: _370  and  _371
REMARK  151  A    between atoms: _374  and  _376
REMARK  152  A    between atoms: _376  and  _377
REMARK  153  A    between atoms: _380  and  _382
REMARK  154  A    between atoms: _382  and  _383
REMARK  155  A    between atoms: _382  and  _385
REMARK  156  A    between atoms: _385  and  _386
REMARK  157  A    between atoms: _386  and  _387
REMARK  158  A    between atoms: _387  and  _388
REMARK  159  A    between atoms: _397  and  _399
REMARK  160  A    between atoms: _399  and  _400
REMARK  161  A    between atoms: _399  and  _402
REMARK  162  A    between atoms: _402  and  _403
REMARK  163  A    between atoms: _406  and  _408
REMARK  164  A    between atoms: _408  and  _409
REMARK  165  A    between atoms: _408  and  _411
REMARK  166  A    between atoms: _411  and  _412
REMARK  167  A    between atoms: _417  and  _418
REMARK  168  A    between atoms: _420  and  _422
REMARK  169  A    between atoms: _422  and  _423
REMARK  170  A    between atoms: _422  and  _425
REMARK  171  A    between atoms: _425  and  _426
REMARK  172  A    between atoms: _429  and  _431
REMARK  173  A    between atoms: _431  and  _432
REMARK  174  A    between atoms: _431  and  _434
REMARK  175  A    between atoms: _437  and  _439
REMARK  176  A    between atoms: _439  and  _440
REMARK  177  A    between atoms: _439  and  _442
REMARK  178  A    between atoms: _442  and  _443
REMARK  179  A    between atoms: _446  and  _448
REMARK  180  A    between atoms: _448  and  _449
REMARK  181  A    between atoms: _448  and  _451
REMARK  182  A    between atoms: _451  and  _452
REMARK  183  A    between atoms: _454  and  _456
REMARK  184  A    between atoms: _456  and  _457
REMARK  185  A    between atoms: _459  and  _461
REMARK  186  A    between atoms: _461  and  _462
REMARK  187  A    between atoms: _461  and  _464
REMARK  188  A    between atoms: _464  and  _465
REMARK  189  A    between atoms: _468  and  _470
REMARK  190  A    between atoms: _470  and  _471
REMARK  191  A    between atoms: _470  and  _473
REMARK  192  A    between atoms: _473  and  _474
REMARK  193  A    between atoms: _477  and  _479
REMARK  194  A    between atoms: _479  and  _480
REMARK  195  A    between atoms: _479  and  _482
REMARK  196  A    between atoms: _482  and  _483
REMARK  197  A    between atoms: _488  and  _490
REMARK  198  A    between atoms: _490  and  _491
REMARK  199  A    between atoms: _490  and  _493
REMARK  200  A    between atoms: _493  and  _494
REMARK  201  A    between atoms: _494  and  _495
REMARK  202  A    between atoms: _495  and  _496
REMARK  203  A    between atoms: _505  and  _507
REMARK  204  A    between atoms: _507  and  _508
REMARK  205  A    between atoms: _507  and  _510
REMARK  206  A    between atoms: _513  and  _515
REMARK  207  A    between atoms: _515  and  _516
REMARK  208  A    between atoms: _518  and  _520
REMARK  209  A    between atoms: _520  and  _521
REMARK  210  A    between atoms: _524  and  _526
REMARK  211  A    between atoms: _526  and  _527
REMARK  212  A    between atoms: _526  and  _529
REMARK  213  A    between atoms: _532  and  _534
REMARK  214  A    between atoms: _534  and  _535
REMARK  215  A    between atoms: _534  and  _537
REMARK  216  A    between atoms: _537  and  _538
REMARK  217  A    between atoms: _538  and  _539
REMARK                            x       y       z     vdW  Elec       q    Type
REMARK                         _______ _______ _______ _____ _____    ______ ____
ROOT
ATOM      1  O   HOH     1      25.287  14.984  20.435  0.00  0.00    +0.000 OA
ENDROOT
TORSDOF 0
REMARK  Name = ../refined-set-2016/4h3g/4h3g_pocket.pdb
REMARK  217 active torsions:
REMARK  status: ('A' for Active; 'I' for Inactive)
REMARK    1  A    between atoms: _1  and  _3
REMARK    2  A    between atoms: _3  and  _4
REMARK    3  A    between atoms: _3  and  _6
REMARK    4  A    between atoms: _6  and  _7
REMARK    5  A    between atoms: _7  and  _8
REMARK    6  A    between atoms: _8  and  _9
REMARK    7  A    between atoms: _9  and  _10
REMARK    8  A    between atoms: _14  and  _16
REMARK    9  A    between atoms: _16  and  _17
REMARK   10  A    between atoms: _16  and  _19
REMARK   11  A    between atoms: _19  and  _20
REMARK   12  A    between atoms: _22  and  _24
REMARK   13  A    between atoms: _24  and  _25
REMARK   14  A    between atoms: _27  and  _29
REMARK   15  A    between atoms: _29  and  _30
REMARK   16  A    between atoms: _29  and  _32
REMARK   17  A    between atoms: _32  and  _33
REMARK   18  A    between atoms: _33  and  _34
REMARK   19  A    between atoms: _39  and  _41
REMARK   20  A    between atoms: _41  and  _42
REMARK   21  A    between atoms: _44  and  _46
REMARK   22  A    between atoms: _46  and  _47
REMARK   23  A    between atoms: _46  and  _49
REMARK   24  A    between atoms: _49  and  _50
REMARK   25  A    between atoms: _55  and  _56
REMARK   26  A    between atoms: _58  and  _60
REMARK   27  A    between atoms: _60  and  _61
REMARK   28  A    between atoms: _60  and  _63
REMARK   29  A    between atoms: _63  and  _64
REMARK   30  A    between atoms: _67  and  _69
REMARK   31  A    between atoms: _69  and  _70
REMARK   32  A    between atoms: _69  and  _72
REMARK   33  A    between atoms: _75  and  _77
REMARK   34  A    between atoms: _77  and  _78
REMARK   35  A    between atoms: _77  and  _80
REMARK   36  A    between atoms: _80  and  _81
REMARK   37  A    between atoms: _84  and  _86
REMARK   38  A    between atoms: _86  and  _87
REMARK   39  A    between atoms: _86  and  _89
REMARK   40  A    between atoms: _89  and  _90
REMARK   41  A    between atoms: _93  and  _95
REMARK   42  A    between atoms: _95  and  _96
REMARK   43  A    between atoms: _98  and  _100
REMARK   44  A    between atoms: _100  and  _101
REMARK   45  A    between atoms: _100  and  _103
REMARK   46  A    between atoms: _103  and  _104
REMARK   47  A    between atoms: _106  and  _108
REMARK   48  A    between atoms: _108  and  _109
REMARK   49  A    between atoms: _108  and  _111
REMARK   50  A    between atoms: _111  and  _112
REMARK   51  A    between atoms: _114  and  _116
REMARK   52  A    between atoms: _116  and  _117
REMARK   53  A    between atoms: _116  and  _119
REMARK   54  A    between atoms: _119  and  _120
REMARK   55  A    between atoms: _125  and  _127
REMARK   56  A    between atoms: _127  and  _128
REMARK   57  A    between atoms: _127  and  _130
REMARK   58  A    between atoms: _130  and  _131
REMARK   59  A    between atoms: _137  and  _139
REMARK   60  A    between atoms: _139  and  _140
REMARK   61  A    between atoms: _143  and  _145
REMARK   62  A    between atoms: _145  and  _146
REMARK   63  A    between atoms: _145  and  _148
REMARK   64  A    between atoms: _151  and  _153
REMARK   65  A    between atoms: _153  and  _154
REMARK   66  A    between atoms: _153  and  _156
REMARK   67  A    between atoms: _156  and  _157
REMARK   68  A    between atoms: _162  and  _163
REMARK   69  A    between atoms: _165  and  _167
REMARK   70  A    between atoms: _167  and  _168
REMARK   71  A    between atoms: _167  and  _170
REMARK   72  A    between atoms: _174  and  _175
REMARK   73  A    between atoms: _180  and  _182
REMARK   74  A    between atoms: _182  and  _183
REMARK   75  A    between atoms: _182  and  _185
REMARK   76  A    between atoms: _185  and  _186
REMARK   77  A    between atoms: _191  and  _192
REMARK   78  A    between atoms: _194  and  _196
REMARK   79  A    between atoms: _196  and  _197
REMARK   80  A    between atoms: _196  and  _199
REMARK   81  A    between atoms: _199  and  _200
REMARK   82  A    between atoms: _203  and  _205
REMARK   83  A    between atoms: _205  and  _206
REMARK   84  A    between atoms: _205  and  _208
REMARK   85  A    between atoms: _208  and  _209
REMARK   86  A    between atoms: _209  and  _210
REMARK   87  A    between atoms: _215  and  _217
REMARK   88  A    between atoms: _217  and  _218
REMARK   89  A    between atoms: _220  and  _222
REMARK   90  A    between atoms: _222  and  _223
REMARK   91  A    between atoms: _222  and  _225
REMARK   92  A    between atoms: _225  and  _226
REMARK   93  A    between atoms: _226  and  _227
REMARK   94  A    between atoms: _227  and  _228
REMARK   95  A    between atoms: _228  and  _229
REMARK   96  A    between atoms: _233  and  _235
REMARK   97  A    between atoms: _235  and  _236
REMARK   98  A    between atoms: _235  and  _238
REMARK   99  A    between atoms: _238  and  _239
REMARK  100  A    between atoms: _249  and  _251
REMARK  101  A    between atoms: _251  and  _252
REMARK  102  A    between atoms: _251  and  _254
REMARK  103  A    between atoms: _254  and  _255
REMARK  104  A    between atoms: _258  and  _260
REMARK  105  A    between atoms: _260  and  _261
REMARK  106  A    between atoms: _260  and  _263
REMARK  107  A    between atoms: _263  and  _264
REMARK  108  A    between atoms: _264  and  _265
REMARK  109  A    between atoms: _265  and  _266
REMARK  110  A    between atoms: _266  and  _267
REMARK  111  A    between atoms: _271  and  _273
REMARK  112  A    between atoms: _273  and  _274
REMARK  113  A    between atoms: _273  and  _276
REMARK  114  A    between atoms: _276  and  _277
REMARK  115  A    between atoms: _283  and  _285
REMARK  116  A    between atoms: _285  and  _286
REMARK  117  A    between atoms: _285  and  _288
REMARK  118  A    between atoms: _288  and  _289
REMARK  119  A    between atoms: _295  and  _297
REMARK  120  A    between atoms: _297  and  _298
REMARK  121  A    between atoms: _297  and  _300
REMARK  122  A    between atoms: _300  and  _301
REMARK  123  A    between atoms: _304  and  _306
REMARK  124  A    between atoms: _306  and  _307
REMARK  125  A    between atoms: _306  and  _309
REMARK  126  A    between atoms: _309  and  _310
REMARK  127  A    between atoms: _312  and  _314
REMARK  128  A    between atoms: _314  and  _315
REMARK  129  A    between atoms: _314  and  _317
REMARK  130  A    between atoms: _317  and  _318
REMARK  131  A    between atoms: _328  and  _330
REMARK  132  A    between atoms: _330  and  _331
REMARK  133  A    between atoms: _333  and  _335
REMARK  134  A    between atoms: _335  and  _336
REMARK  135  A    between atoms: _335  and  _338
REMARK  136  A    between atoms: _338  and  _339
REMARK  137  A    between atoms: _342  and  _344
REMARK  138  A    between atoms: _344  and  _345
REMARK  139  A    between atoms: _344  and  _347
REMARK  140  A    between atoms: _347  and  _348
REMARK  141  A    between atoms: _351  and  _353
REMARK  142  A    between atoms: _353  and  _354
REMARK  143  A    between atoms: _356  and  _358
REMARK  144  A    between atoms: _358  and  _359
REMARK  145  A    between atoms: _358  and  _361
REMARK  146  A    between atoms: _361  and  _362
REMARK  147  A    between atoms: _365  and  _367
REMARK  148  A    between atoms: _367  and  _368
REMARK  149  A    between atoms: _367  and  _370
REMARK  150  A    between atoms: _370  and  _371
REMARK  151  A    between atoms: _374  and  _376
REMARK  152  A    between atoms: _376  and  _377
REMARK  153  A    between atoms: _380  and  _382
REMARK  154  A    between atoms: _382  and  _383
REMARK  155  A    between atoms: _382  and  _385
REMARK  156  A    between atoms: _385  and  _386
REMARK  157  A    between atoms: _386  and  _387
REMARK  158  A    between atoms: _387  and  _388
REMARK  159  A    between atoms: _397  and  _399
REMARK  160  A    between atoms: _399  and  _400
REMARK  161  A    between atoms: _399  and  _402
REMARK  162  A    between atoms: _402  and  _403
REMARK  163  A    between atoms: _406  and  _408
REMARK  164  A    between atoms: _408  and  _409
REMARK  165  A    between atoms: _408  and  _411
REMARK  166  A    between atoms: _411  and  _412
REMARK  167  A    between atoms: _417  and  _418
REMARK  168  A    between atoms: _420  and  _422
REMARK  169  A    between atoms: _422  and  _423
REMARK  170  A    between atoms: _422  and  _425
REMARK  171  A    between atoms: _425  and  _426
REMARK  172  A    between atoms: _429  and  _431
REMARK  173  A    between atoms: _431  and  _432
REMARK  174  A    between atoms: _431  and  _434
REMARK  175  A    between atoms: _437  and  _439
REMARK  176  A    between atoms: _439  and  _440
REMARK  177  A    between atoms: _439  and  _442
REMARK  178  A    between atoms: _442  and  _443
REMARK  179  A    between atoms: _446  and  _448
REMARK  180  A    between atoms: _448  and  _449
REMARK  181  A    between atoms: _448  and  _451
REMARK  182  A    between atoms: _451  and  _452
REMARK  183  A    between atoms: _454  and  _456
REMARK  184  A    between atoms: _456  and  _457
REMARK  185  A    between atoms: _459  and  _461
REMARK  186  A    between atoms: _461  and  _462
REMARK  187  A    between atoms: _461  and  _464
REMARK  188  A    between atoms: _464  and  _465
REMARK  189  A    between atoms: _468  and  _470
REMARK  190  A    between atoms: _470  and  _471
REMARK  191  A    between atoms: _470  and  _473
REMARK  192  A    between atoms: _473  and  _474
REMARK  193  A    between atoms: _477  and  _479
REMARK  194  A    between atoms: _479  and  _480
REMARK  195  A    between atoms: _479  and  _482
REMARK  196  A    between atoms: _482  and  _483
REMARK  197  A    between atoms: _488  and  _490
REMARK  198  A    between atoms: _490  and  _491
REMARK  199  A    between atoms: _490  and  _493
REMARK  200  A    between atoms: _493  and  _494
REMARK  201  A    between atoms: _494  and  _495
REMARK  202  A    between atoms: _495  and  _496
REMARK  203  A    between atoms: _505  and  _507
REMARK  204  A    between atoms: _507  and  _508
REMARK  205  A    between atoms: _507  and  _510
REMARK  206  A    between atoms: _513  and  _515
REMARK  207  A    between atoms: _515  and  _516
REMARK  208  A    between atoms: _518  and  _520
REMARK  209  A    between atoms: _520  and  _521
REMARK  210  A    between atoms: _524  and  _526
REMARK  211  A    between atoms: _526  and  _527
REMARK  212  A    between atoms: _526  and  _529
REMARK  213  A    between atoms: _532  and  _534
REMARK  214  A    between atoms: _534  and  _535
REMARK  215  A    between atoms: _534  and  _537
REMARK  216  A    between atoms: _537  and  _538
REMARK  217  A    between atoms: _538  and  _539
REMARK                            x       y       z     vdW  Elec       q    Type
REMARK                         _______ _______ _______ _____ _____    ______ ____
ROOT
ATOM      1  O   HOH     1      17.499  14.063  29.113  0.00  0.00    +0.000 OA
ENDROOT
TORSDOF 0
REMARK  Name = ../refined-set-2016/4h3g/4h3g_pocket.pdb
REMARK  217 active torsions:
REMARK  status: ('A' for Active; 'I' for Inactive)
REMARK    1  A    between atoms: _1  and  _3
REMARK    2  A    between atoms: _3  and  _4
REMARK    3  A    between atoms: _3  and  _6
REMARK    4  A    between atoms: _6  and  _7
REMARK    5  A    between atoms: _7  and  _8
REMARK    6  A    between atoms: _8  and  _9
REMARK    7  A    between atoms: _9  and  _10
REMARK    8  A    between atoms: _14  and  _16
REMARK    9  A    between atoms: _16  and  _17
REMARK   10  A    between atoms: _16  and  _19
REMARK   11  A    between atoms: _19  and  _20
REMARK   12  A    between atoms: _22  and  _24
REMARK   13  A    between atoms: _24  and  _25
REMARK   14  A    between atoms: _27  and  _29
REMARK   15  A    between atoms: _29  and  _30
REMARK   16  A    between atoms: _29  and  _32
REMARK   17  A    between atoms: _32  and  _33
REMARK   18  A    between atoms: _33  and  _34
REMARK   19  A    between atoms: _39  and  _41
REMARK   20  A    between atoms: _41  and  _42
REMARK   21  A    between atoms: _44  and  _46
REMARK   22  A    between atoms: _46  and  _47
REMARK   23  A    between atoms: _46  and  _49
REMARK   24  A    between atoms: _49  and  _50
REMARK   25  A    between atoms: _55  and  _56
REMARK   26  A    between atoms: _58  and  _60
REMARK   27  A    between atoms: _60  and  _61
REMARK   28  A    between atoms: _60  and  _63
REMARK   29  A    between atoms: _63  and  _64
REMARK   30  A    between atoms: _67  and  _69
REMARK   31  A    between atoms: _69  and  _70
REMARK   32  A    between atoms: _69  and  _72
REMARK   33  A    between atoms: _75  and  _77
REMARK   34  A    between atoms: _77  and  _78
REMARK   35  A    between atoms: _77  and  _80
REMARK   36  A    between atoms: _80  and  _81
REMARK   37  A    between atoms: _84  and  _86
REMARK   38  A    between atoms: _86  and  _87
REMARK   39  A    between atoms: _86  and  _89
REMARK   40  A    between atoms: _89  and  _90
REMARK   41  A    between atoms: _93  and  _95
REMARK   42  A    between atoms: _95  and  _96
REMARK   43  A    between atoms: _98  and  _100
REMARK   44  A    between atoms: _100  and  _101
REMARK   45  A    between atoms: _100  and  _103
REMARK   46  A    between atoms: _103  and  _104
REMARK   47  A    between atoms: _106  and  _108
REMARK   48  A    between atoms: _108  and  _109
REMARK   49  A    between atoms: _108  and  _111
REMARK   50  A    between atoms: _111  and  _112
REMARK   51  A    between atoms: _114  and  _116
REMARK   52  A    between atoms: _116  and  _117
REMARK   53  A    between atoms: _116  and  _119
REMARK   54  A    between atoms: _119  and  _120
REMARK   55  A    between atoms: _125  and  _127
REMARK   56  A    between atoms: _127  and  _128
REMARK   57  A    between atoms: _127  and  _130
REMARK   58  A    between atoms: _130  and  _131
REMARK   59  A    between atoms: _137  and  _139
REMARK   60  A    between atoms: _139  and  _140
REMARK   61  A    between atoms: _143  and  _145
REMARK   62  A    between atoms: _145  and  _146
REMARK   63  A    between atoms: _145  and  _148
REMARK   64  A    between atoms: _151  and  _153
REMARK   65  A    between atoms: _153  and  _154
REMARK   66  A    between atoms: _153  and  _156
REMARK   67  A    between atoms: _156  and  _157
REMARK   68  A    between atoms: _162  and  _163
REMARK   69  A    between atoms: _165  and  _167
REMARK   70  A    between atoms: _167  and  _168
REMARK   71  A    between atoms: _167  and  _170
REMARK   72  A    between atoms: _174  and  _175
REMARK   73  A    between atoms: _180  and  _182
REMARK   74  A    between atoms: _182  and  _183
REMARK   75  A    between atoms: _182  and  _185
REMARK   76  A    between atoms: _185  and  _186
REMARK   77  A    between atoms: _191  and  _192
REMARK   78  A    between atoms: _194  and  _196
REMARK   79  A    between atoms: _196  and  _197
REMARK   80  A    between atoms: _196  and  _199
REMARK   81  A    between atoms: _199  and  _200
REMARK   82  A    between atoms: _203  and  _205
REMARK   83  A    between atoms: _205  and  _206
REMARK   84  A    between atoms: _205  and  _208
REMARK   85  A    between atoms: _208  and  _209
REMARK   86  A    between atoms: _209  and  _210
REMARK   87  A    between atoms: _215  and  _217
REMARK   88  A    between atoms: _217  and  _218
REMARK   89  A    between atoms: _220  and  _222
REMARK   90  A    between atoms: _222  and  _223
REMARK   91  A    between atoms: _222  and  _225
REMARK   92  A    between atoms: _225  and  _226
REMARK   93  A    between atoms: _226  and  _227
REMARK   94  A    between atoms: _227  and  _228
REMARK   95  A    between atoms: _228  and  _229
REMARK   96  A    between atoms: _233  and  _235
REMARK   97  A    between atoms: _235  and  _236
REMARK   98  A    between atoms: _235  and  _238
REMARK   99  A    between atoms: _238  and  _239
REMARK  100  A    between atoms: _249  and  _251
REMARK  101  A    between atoms: _251  and  _252
REMARK  102  A    between atoms: _251  and  _254
REMARK  103  A    between atoms: _254  and  _255
REMARK  104  A    between atoms: _258  and  _260
REMARK  105  A    between atoms: _260  and  _261
REMARK  106  A    between atoms: _260  and  _263
REMARK  107  A    between atoms: _263  and  _264
REMARK  108  A    between atoms: _264  and  _265
REMARK  109  A    between atoms: _265  and  _266
REMARK  110  A    between atoms: _266  and  _267
REMARK  111  A    between atoms: _271  and  _273
REMARK  112  A    between atoms: _273  and  _274
REMARK  113  A    between atoms: _273  and  _276
REMARK  114  A    between atoms: _276  and  _277
REMARK  115  A    between atoms: _283  and  _285
REMARK  116  A    between atoms: _285  and  _286
REMARK  117  A    between atoms: _285  and  _288
REMARK  118  A    between atoms: _288  and  _289
REMARK  119  A    between atoms: _295  and  _297
REMARK  120  A    between atoms: _297  and  _298
REMARK  121  A    between atoms: _297  and  _300
REMARK  122  A    between atoms: _300  and  _301
REMARK  123  A    between atoms: _304  and  _306
REMARK  124  A    between atoms: _306  and  _307
REMARK  125  A    between atoms: _306  and  _309
REMARK  126  A    between atoms: _309  and  _310
REMARK  127  A    between atoms: _312  and  _314
REMARK  128  A    between atoms: _314  and  _315
REMARK  129  A    between atoms: _314  and  _317
REMARK  130  A    between atoms: _317  and  _318
REMARK  131  A    between atoms: _328  and  _330
REMARK  132  A    between atoms: _330  and  _331
REMARK  133  A    between atoms: _333  and  _335
REMARK  134  A    between atoms: _335  and  _336
REMARK  135  A    between atoms: _335  and  _338
REMARK  136  A    between atoms: _338  and  _339
REMARK  137  A    between atoms: _342  and  _344
REMARK  138  A    between atoms: _344  and  _345
REMARK  139  A    between atoms: _344  and  _347
REMARK  140  A    between atoms: _347  and  _348
REMARK  141  A    between atoms: _351  and  _353
REMARK  142  A    between atoms: _353  and  _354
REMARK  143  A    between atoms: _356  and  _358
REMARK  144  A    between atoms: _358  and  _359
REMARK  145  A    between atoms: _358  and  _361
REMARK  146  A    between atoms: _361  and  _362
REMARK  147  A    between atoms: _365  and  _367
REMARK  148  A    between atoms: _367  and  _368
REMARK  149  A    between atoms: _367  and  _370
REMARK  150  A    between atoms: _370  and  _371
REMARK  151  A    between atoms: _374  and  _376
REMARK  152  A    between atoms: _376  and  _377
REMARK  153  A    between atoms: _380  and  _382
REMARK  154  A    between atoms: _382  and  _383
REMARK  155  A    between atoms: _382  and  _385
REMARK  156  A    between atoms: _385  and  _386
REMARK  157  A    between atoms: _386  and  _387
REMARK  158  A    between atoms: _387  and  _388
REMARK  159  A    between atoms: _397  and  _399
REMARK  160  A    between atoms: _399  and  _400
REMARK  161  A    between atoms: _399  and  _402
REMARK  162  A    between atoms: _402  and  _403
REMARK  163  A    between atoms: _406  and  _408
REMARK  164  A    between atoms: _408  and  _409
REMARK  165  A    between atoms: _408  and  _411
REMARK  166  A    between atoms: _411  and  _412
REMARK  167  A    between atoms: _417  and  _418
REMARK  168  A    between atoms: _420  and  _422
REMARK  169  A    between atoms: _422  and  _423
REMARK  170  A    between atoms: _422  and  _425
REMARK  171  A    between atoms: _425  and  _426
REMARK  172  A    between atoms: _429  and  _431
REMARK  173  A    between atoms: _431  and  _432
REMARK  174  A    between atoms: _431  and  _434
REMARK  175  A    between atoms: _437  and  _439
REMARK  176  A    between atoms: _439  and  _440
REMARK  177  A    between atoms: _439  and  _442
REMARK  178  A    between atoms: _442  and  _443
REMARK  179  A    between atoms: _446  and  _448
REMARK  180  A    between atoms: _448  and  _449
REMARK  181  A    between atoms: _448  and  _451
REMARK  182  A    between atoms: _451  and  _452
REMARK  183  A    between atoms: _454  and  _456
REMARK  184  A    between atoms: _456  and  _457
REMARK  185  A    between atoms: _459  and  _461
REMARK  186  A    between atoms: _461  and  _462
REMARK  187  A    between atoms: _461  and  _464
REMARK  188  A    between atoms: _464  and  _465
REMARK  189  A    between atoms: _468  and  _470
REMARK  190  A    between atoms: _470  and  _471
REMARK  191  A    between atoms: _470  and  _473
REMARK  192  A    between atoms: _473  and  _474
REMARK  193  A    between atoms: _477  and  _479
REMARK  194  A    between atoms: _479  and  _480
REMARK  195  A    between atoms: _479  and  _482
REMARK  196  A    between atoms: _482  and  _483
REMARK  197  A    between atoms: _488  and  _490
REMARK  198  A    between atoms: _490  and  _491
REMARK  199  A    between atoms: _490  and  _493
REMARK  200  A    between atoms: _493  and  _494
REMARK  201  A    between atoms: _494  and  _495
REMARK  202  A    between atoms: _495  and  _496
REMARK  203  A    between atoms: _505  and  _507
REMARK  204  A    between atoms: _507  and  _508
REMARK  205  A    between atoms: _507  and  _510
REMARK  206  A    between atoms: _513  and  _515
REMARK  207  A    between atoms: _515  and  _516
REMARK  208  A    between atoms: _518  and  _520
REMARK  209  A    between atoms: _520  and  _521
REMARK  210  A    between atoms: _524  and  _526
REMARK  211  A    between atoms: _526  and  _527
REMARK  212  A    between atoms: _526  and  _529
REMARK  213  A    between atoms: _532  and  _534
REMARK  214  A    between atoms: _534  and  _535
REMARK  215  A    between atoms: _534  and  _537
REMARK  216  A    between atoms: _537  and  _538
REMARK  217  A    between atoms: _538  and  _539
REMARK                            x       y       z     vdW  Elec       q    Type
REMARK                         _______ _______ _______ _____ _____    ______ ____
ROOT
ATOM      1  O   HOH     1      17.588  12.329  24.502  0.00  0.00    +0.000 OA
ENDROOT
TORSDOF 0
REMARK  Name = ../refined-set-2016/4h3g/4h3g_pocket.pdb
REMARK  217 active torsions:
REMARK  status: ('A' for Active; 'I' for Inactive)
REMARK    1  A    between atoms: _1  and  _3
REMARK    2  A    between atoms: _3  and  _4
REMARK    3  A    between atoms: _3  and  _6
REMARK    4  A    between atoms: _6  and  _7
REMARK    5  A    between atoms: _7  and  _8
REMARK    6  A    between atoms: _8  and  _9
REMARK    7  A    between atoms: _9  and  _10
REMARK    8  A    between atoms: _14  and  _16
REMARK    9  A    between atoms: _16  and  _17
REMARK   10  A    between atoms: _16  and  _19
REMARK   11  A    between atoms: _19  and  _20
REMARK   12  A    between atoms: _22  and  _24
REMARK   13  A    between atoms: _24  and  _25
REMARK   14  A    between atoms: _27  and  _29
REMARK   15  A    between atoms: _29  and  _30
REMARK   16  A    between atoms: _29  and  _32
REMARK   17  A    between atoms: _32  and  _33
REMARK   18  A    between atoms: _33  and  _34
REMARK   19  A    between atoms: _39  and  _41
REMARK   20  A    between atoms: _41  and  _42
REMARK   21  A    between atoms: _44  and  _46
REMARK   22  A    between atoms: _46  and  _47
REMARK   23  A    between atoms: _46  and  _49
REMARK   24  A    between atoms: _49  and  _50
REMARK   25  A    between atoms: _55  and  _56
REMARK   26  A    between atoms: _58  and  _60
REMARK   27  A    between atoms: _60  and  _61
REMARK   28  A    between atoms: _60  and  _63
REMARK   29  A    between atoms: _63  and  _64
REMARK   30  A    between atoms: _67  and  _69
REMARK   31  A    between atoms: _69  and  _70
REMARK   32  A    between atoms: _69  and  _72
REMARK   33  A    between atoms: _75  and  _77
REMARK   34  A    between atoms: _77  and  _78
REMARK   35  A    between atoms: _77  and  _80
REMARK   36  A    between atoms: _80  and  _81
REMARK   37  A    between atoms: _84  and  _86
REMARK   38  A    between atoms: _86  and  _87
REMARK   39  A    between atoms: _86  and  _89
REMARK   40  A    between atoms: _89  and  _90
REMARK   41  A    between atoms: _93  and  _95
REMARK   42  A    between atoms: _95  and  _96
REMARK   43  A    between atoms: _98  and  _100
REMARK   44  A    between atoms: _100  and  _101
REMARK   45  A    between atoms: _100  and  _103
REMARK   46  A    between atoms: _103  and  _104
REMARK   47  A    between atoms: _106  and  _108
REMARK   48  A    between atoms: _108  and  _109
REMARK   49  A    between atoms: _108  and  _111
REMARK   50  A    between atoms: _111  and  _112
REMARK   51  A    between atoms: _114  and  _116
REMARK   52  A    between atoms: _116  and  _117
REMARK   53  A    between atoms: _116  and  _119
REMARK   54  A    between atoms: _119  and  _120
REMARK   55  A    between atoms: _125  and  _127
REMARK   56  A    between atoms: _127  and  _128
REMARK   57  A    between atoms: _127  and  _130
REMARK   58  A    between atoms: _130  and  _131
REMARK   59  A    between atoms: _137  and  _139
REMARK   60  A    between atoms: _139  and  _140
REMARK   61  A    between atoms: _143  and  _145
REMARK   62  A    between atoms: _145  and  _146
REMARK   63  A    between atoms: _145  and  _148
REMARK   64  A    between atoms: _151  and  _153
REMARK   65  A    between atoms: _153  and  _154
REMARK   66  A    between atoms: _153  and  _156
REMARK   67  A    between atoms: _156  and  _157
REMARK   68  A    between atoms: _162  and  _163
REMARK   69  A    between atoms: _165  and  _167
REMARK   70  A    between atoms: _167  and  _168
REMARK   71  A    between atoms: _167  and  _170
REMARK   72  A    between atoms: _174  and  _175
REMARK   73  A    between atoms: _180  and  _182
REMARK   74  A    between atoms: _182  and  _183
REMARK   75  A    between atoms: _182  and  _185
REMARK   76  A    between atoms: _185  and  _186
REMARK   77  A    between atoms: _191  and  _192
REMARK   78  A    between atoms: _194  and  _196
REMARK   79  A    between atoms: _196  and  _197
REMARK   80  A    between atoms: _196  and  _199
REMARK   81  A    between atoms: _199  and  _200
REMARK   82  A    between atoms: _203  and  _205
REMARK   83  A    between atoms: _205  and  _206
REMARK   84  A    between atoms: _205  and  _208
REMARK   85  A    between atoms: _208  and  _209
REMARK   86  A    between atoms: _209  and  _210
REMARK   87  A    between atoms: _215  and  _217
REMARK   88  A    between atoms: _217  and  _218
REMARK   89  A    between atoms: _220  and  _222
REMARK   90  A    between atoms: _222  and  _223
REMARK   91  A    between atoms: _222  and  _225
REMARK   92  A    between atoms: _225  and  _226
REMARK   93  A    between atoms: _226  and  _227
REMARK   94  A    between atoms: _227  and  _228
REMARK   95  A    between atoms: _228  and  _229
REMARK   96  A    between atoms: _233  and  _235
REMARK   97  A    between atoms: _235  and  _236
REMARK   98  A    between atoms: _235  and  _238
REMARK   99  A    between atoms: _238  and  _239
REMARK  100  A    between atoms: _249  and  _251
REMARK  101  A    between atoms: _251  and  _252
REMARK  102  A    between atoms: _251  and  _254
REMARK  103  A    between atoms: _254  and  _255
REMARK  104  A    between atoms: _258  and  _260
REMARK  105  A    between atoms: _260  and  _261
REMARK  106  A    between atoms: _260  and  _263
REMARK  107  A    between atoms: _263  and  _264
REMARK  108  A    between atoms: _264  and  _265
REMARK  109  A    between atoms: _265  and  _266
REMARK  110  A    between atoms: _266  and  _267
REMARK  111  A    between atoms: _271  and  _273
REMARK  112  A    between atoms: _273  and  _274
REMARK  113  A    between atoms: _273  and  _276
REMARK  114  A    between atoms: _276  and  _277
REMARK  115  A    between atoms: _283  and  _285
REMARK  116  A    between atoms: _285  and  _286
REMARK  117  A    between atoms: _285  and  _288
REMARK  118  A    between atoms: _288  and  _289
REMARK  119  A    between atoms: _295  and  _297
REMARK  120  A    between atoms: _297  and  _298
REMARK  121  A    between atoms: _297  and  _300
REMARK  122  A    between atoms: _300  and  _301
REMARK  123  A    between atoms: _304  and  _306
REMARK  124  A    between atoms: _306  and  _307
REMARK  125  A    between atoms: _306  and  _309
REMARK  126  A    between atoms: _309  and  _310
REMARK  127  A    between atoms: _312  and  _314
REMARK  128  A    between atoms: _314  and  _315
REMARK  129  A    between atoms: _314  and  _317
REMARK  130  A    between atoms: _317  and  _318
REMARK  131  A    between atoms: _328  and  _330
REMARK  132  A    between atoms: _330  and  _331
REMARK  133  A    between atoms: _333  and  _335
REMARK  134  A    between atoms: _335  and  _336
REMARK  135  A    between atoms: _335  and  _338
REMARK  136  A    between atoms: _338  and  _339
REMARK  137  A    between atoms: _342  and  _344
REMARK  138  A    between atoms: _344  and  _345
REMARK  139  A    between atoms: _344  and  _347
REMARK  140  A    between atoms: _347  and  _348
REMARK  141  A    between atoms: _351  and  _353
REMARK  142  A    between atoms: _353  and  _354
REMARK  143  A    between atoms: _356  and  _358
REMARK  144  A    between atoms: _358  and  _359
REMARK  145  A    between atoms: _358  and  _361
REMARK  146  A    between atoms: _361  and  _362
REMARK  147  A    between atoms: _365  and  _367
REMARK  148  A    between atoms: _367  and  _368
REMARK  149  A    between atoms: _367  and  _370
REMARK  150  A    between atoms: _370  and  _371
REMARK  151  A    between atoms: _374  and  _376
REMARK  152  A    between atoms: _376  and  _377
REMARK  153  A    between atoms: _380  and  _382
REMARK  154  A    between atoms: _382  and  _383
REMARK  155  A    between atoms: _382  and  _385
REMARK  156  A    between atoms: _385  and  _386
REMARK  157  A    between atoms: _386  and  _387
REMARK  158  A    between atoms: _387  and  _388
REMARK  159  A    between atoms: _397  and  _399
REMARK  160  A    between atoms: _399  and  _400
REMARK  161  A    between atoms: _399  and  _402
REMARK  162  A    between atoms: _402  and  _403
REMARK  163  A    between atoms: _406  and  _408
REMARK  164  A    between atoms: _408  and  _409
REMARK  165  A    between atoms: _408  and  _411
REMARK  166  A    between atoms: _411  and  _412
REMARK  167  A    between atoms: _417  and  _418
REMARK  168  A    between atoms: _420  and  _422
REMARK  169  A    between atoms: _422  and  _423
REMARK  170  A    between atoms: _422  and  _425
REMARK  171  A    between atoms: _425  and  _426
REMARK  172  A    between atoms: _429  and  _431
REMARK  173  A    between atoms: _431  and  _432
REMARK  174  A    between atoms: _431  and  _434
REMARK  175  A    between atoms: _437  and  _439
REMARK  176  A    between atoms: _439  and  _440
REMARK  177  A    between atoms: _439  and  _442
REMARK  178  A    between atoms: _442  and  _443
REMARK  179  A    between atoms: _446  and  _448
REMARK  180  A    between atoms: _448  and  _449
REMARK  181  A    between atoms: _448  and  _451
REMARK  182  A    between atoms: _451  and  _452
REMARK  183  A    between atoms: _454  and  _456
REMARK  184  A    between atoms: _456  and  _457
REMARK  185  A    between atoms: _459  and  _461
REMARK  186  A    between atoms: _461  and  _462
REMARK  187  A    between atoms: _461  and  _464
REMARK  188  A    between atoms: _464  and  _465
REMARK  189  A    between atoms: _468  and  _470
REMARK  190  A    between atoms: _470  and  _471
REMARK  191  A    between atoms: _470  and  _473
REMARK  192  A    between atoms: _473  and  _474
REMARK  193  A    between atoms: _477  and  _479
REMARK  194  A    between atoms: _479  and  _480
REMARK  195  A    between atoms: _479  and  _482
REMARK  196  A    between atoms: _482  and  _483
REMARK  197  A    between atoms: _488  and  _490
REMARK  198  A    between atoms: _490  and  _491
REMARK  199  A    between atoms: _490  and  _493
REMARK  200  A    between atoms: _493  and  _494
REMARK  201  A    between atoms: _494  and  _495
REMARK  202  A    between atoms: _495  and  _496
REMARK  203  A    between atoms: _505  and  _507
REMARK  204  A    between atoms: _507  and  _508
REMARK  205  A    between atoms: _507  and  _510
REMARK  206  A    between atoms: _513  and  _515
REMARK  207  A    between atoms: _515  and  _516
REMARK  208  A    between atoms: _518  and  _520
REMARK  209  A    between atoms: _520  and  _521
REMARK  210  A    between atoms: _524  and  _526
REMARK  211  A    between atoms: _526  and  _527
REMARK  212  A    between atoms: _526  and  _529
REMARK  213  A    between atoms: _532  and  _534
REMARK  214  A    between atoms: _534  and  _535
REMARK  215  A    between atoms: _534  and  _537
REMARK  216  A    between atoms: _537  and  _538
REMARK  217  A    between atoms: _538  and  _539
REMARK                            x       y       z     vdW  Elec       q    Type
REMARK                         _______ _______ _______ _____ _____    ______ ____
ROOT
ATOM      1  O   HOH     1      19.084  15.106  24.346  0.00  0.00    +0.000 OA
ENDROOT
TORSDOF 0
REMARK  Name = ../refined-set-2016/4h3g/4h3g_pocket.pdb
REMARK  217 active torsions:
REMARK  status: ('A' for Active; 'I' for Inactive)
REMARK    1  A    between atoms: _1  and  _3
REMARK    2  A    between atoms: _3  and  _4
REMARK    3  A    between atoms: _3  and  _6
REMARK    4  A    between atoms: _6  and  _7
REMARK    5  A    between atoms: _7  and  _8
REMARK    6  A    between atoms: _8  and  _9
REMARK    7  A    between atoms: _9  and  _10
REMARK    8  A    between atoms: _14  and  _16
REMARK    9  A    between atoms: _16  and  _17
REMARK   10  A    between atoms: _16  and  _19
REMARK   11  A    between atoms: _19  and  _20
REMARK   12  A    between atoms: _22  and  _24
REMARK   13  A    between atoms: _24  and  _25
REMARK   14  A    between atoms: _27  and  _29
REMARK   15  A    between atoms: _29  and  _30
REMARK   16  A    between atoms: _29  and  _32
REMARK   17  A    between atoms: _32  and  _33
REMARK   18  A    between atoms: _33  and  _34
REMARK   19  A    between atoms: _39  and  _41
REMARK   20  A    between atoms: _41  and  _42
REMARK   21  A    between atoms: _44  and  _46
REMARK   22  A    between atoms: _46  and  _47
REMARK   23  A    between atoms: _46  and  _49
REMARK   24  A    between atoms: _49  and  _50
REMARK   25  A    between atoms: _55  and  _56
REMARK   26  A    between atoms: _58  and  _60
REMARK   27  A    between atoms: _60  and  _61
REMARK   28  A    between atoms: _60  and  _63
REMARK   29  A    between atoms: _63  and  _64
REMARK   30  A    between atoms: _67  and  _69
REMARK   31  A    between atoms: _69  and  _70
REMARK   32  A    between atoms: _69  and  _72
REMARK   33  A    between atoms: _75  and  _77
REMARK   34  A    between atoms: _77  and  _78
REMARK   35  A    between atoms: _77  and  _80
REMARK   36  A    between atoms: _80  and  _81
REMARK   37  A    between atoms: _84  and  _86
REMARK   38  A    between atoms: _86  and  _87
REMARK   39  A    between atoms: _86  and  _89
REMARK   40  A    between atoms: _89  and  _90
REMARK   41  A    between atoms: _93  and  _95
REMARK   42  A    between atoms: _95  and  _96
REMARK   43  A    between atoms: _98  and  _100
REMARK   44  A    between atoms: _100  and  _101
REMARK   45  A    between atoms: _100  and  _103
REMARK   46  A    between atoms: _103  and  _104
REMARK   47  A    between atoms: _106  and  _108
REMARK   48  A    between atoms: _108  and  _109
REMARK   49  A    between atoms: _108  and  _111
REMARK   50  A    between atoms: _111  and  _112
REMARK   51  A    between atoms: _114  and  _116
REMARK   52  A    between atoms: _116  and  _117
REMARK   53  A    between atoms: _116  and  _119
REMARK   54  A    between atoms: _119  and  _120
REMARK   55  A    between atoms: _125  and  _127
REMARK   56  A    between atoms: _127  and  _128
REMARK   57  A    between atoms: _127  and  _130
REMARK   58  A    between atoms: _130  and  _131
REMARK   59  A    between atoms: _137  and  _139
REMARK   60  A    between atoms: _139  and  _140
REMARK   61  A    between atoms: _143  and  _145
REMARK   62  A    between atoms: _145  and  _146
REMARK   63  A    between atoms: _145  and  _148
REMARK   64  A    between atoms: _151  and  _153
REMARK   65  A    between atoms: _153  and  _154
REMARK   66  A    between atoms: _153  and  _156
REMARK   67  A    between atoms: _156  and  _157
REMARK   68  A    between atoms: _162  and  _163
REMARK   69  A    between atoms: _165  and  _167
REMARK   70  A    between atoms: _167  and  _168
REMARK   71  A    between atoms: _167  and  _170
REMARK   72  A    between atoms: _174  and  _175
REMARK   73  A    between atoms: _180  and  _182
REMARK   74  A    between atoms: _182  and  _183
REMARK   75  A    between atoms: _182  and  _185
REMARK   76  A    between atoms: _185  and  _186
REMARK   77  A    between atoms: _191  and  _192
REMARK   78  A    between atoms: _194  and  _196
REMARK   79  A    between atoms: _196  and  _197
REMARK   80  A    between atoms: _196  and  _199
REMARK   81  A    between atoms: _199  and  _200
REMARK   82  A    between atoms: _203  and  _205
REMARK   83  A    between atoms: _205  and  _206
REMARK   84  A    between atoms: _205  and  _208
REMARK   85  A    between atoms: _208  and  _209
REMARK   86  A    between atoms: _209  and  _210
REMARK   87  A    between atoms: _215  and  _217
REMARK   88  A    between atoms: _217  and  _218
REMARK   89  A    between atoms: _220  and  _222
REMARK   90  A    between atoms: _222  and  _223
REMARK   91  A    between atoms: _222  and  _225
REMARK   92  A    between atoms: _225  and  _226
REMARK   93  A    between atoms: _226  and  _227
REMARK   94  A    between atoms: _227  and  _228
REMARK   95  A    between atoms: _228  and  _229
REMARK   96  A    between atoms: _233  and  _235
REMARK   97  A    between atoms: _235  and  _236
REMARK   98  A    between atoms: _235  and  _238
REMARK   99  A    between atoms: _238  and  _239
REMARK  100  A    between atoms: _249  and  _251
REMARK  101  A    between atoms: _251  and  _252
REMARK  102  A    between atoms: _251  and  _254
REMARK  103  A    between atoms: _254  and  _255
REMARK  104  A    between atoms: _258  and  _260
REMARK  105  A    between atoms: _260  and  _261
REMARK  106  A    between atoms: _260  and  _263
REMARK  107  A    between atoms: _263  and  _264
REMARK  108  A    between atoms: _264  and  _265
REMARK  109  A    between atoms: _265  and  _266
REMARK  110  A    between atoms: _266  and  _267
REMARK  111  A    between atoms: _271  and  _273
REMARK  112  A    between atoms: _273  and  _274
REMARK  113  A    between atoms: _273  and  _276
REMARK  114  A    between atoms: _276  and  _277
REMARK  115  A    between atoms: _283  and  _285
REMARK  116  A    between atoms: _285  and  _286
REMARK  117  A    between atoms: _285  and  _288
REMARK  118  A    between atoms: _288  and  _289
REMARK  119  A    between atoms: _295  and  _297
REMARK  120  A    between atoms: _297  and  _298
REMARK  121  A    between atoms: _297  and  _300
REMARK  122  A    between atoms: _300  and  _301
REMARK  123  A    between atoms: _304  and  _306
REMARK  124  A    between atoms: _306  and  _307
REMARK  125  A    between atoms: _306  and  _309
REMARK  126  A    between atoms: _309  and  _310
REMARK  127  A    between atoms: _312  and  _314
REMARK  128  A    between atoms: _314  and  _315
REMARK  129  A    between atoms: _314  and  _317
REMARK  130  A    between atoms: _317  and  _318
REMARK  131  A    between atoms: _328  and  _330
REMARK  132  A    between atoms: _330  and  _331
REMARK  133  A    between atoms: _333  and  _335
REMARK  134  A    between atoms: _335  and  _336
REMARK  135  A    between atoms: _335  and  _338
REMARK  136  A    between atoms: _338  and  _339
REMARK  137  A    between atoms: _342  and  _344
REMARK  138  A    between atoms: _344  and  _345
REMARK  139  A    between atoms: _344  and  _347
REMARK  140  A    between atoms: _347  and  _348
REMARK  141  A    between atoms: _351  and  _353
REMARK  142  A    between atoms: _353  and  _354
REMARK  143  A    between atoms: _356  and  _358
REMARK  144  A    between atoms: _358  and  _359
REMARK  145  A    between atoms: _358  and  _361
REMARK  146  A    between atoms: _361  and  _362
REMARK  147  A    between atoms: _365  and  _367
REMARK  148  A    between atoms: _367  and  _368
REMARK  149  A    between atoms: _367  and  _370
REMARK  150  A    between atoms: _370  and  _371
REMARK  151  A    between atoms: _374  and  _376
REMARK  152  A    between atoms: _376  and  _377
REMARK  153  A    between atoms: _380  and  _382
REMARK  154  A    between atoms: _382  and  _383
REMARK  155  A    between atoms: _382  and  _385
REMARK  156  A    between atoms: _385  and  _386
REMARK  157  A    between atoms: _386  and  _387
REMARK  158  A    between atoms: _387  and  _388
REMARK  159  A    between atoms: _397  and  _399
REMARK  160  A    between atoms: _399  and  _400
REMARK  161  A    between atoms: _399  and  _402
REMARK  162  A    between atoms: _402  and  _403
REMARK  163  A    between atoms: _406  and  _408
REMARK  164  A    between atoms: _408  and  _409
REMARK  165  A    between atoms: _408  and  _411
REMARK  166  A    between atoms: _411  and  _412
REMARK  167  A    between atoms: _417  and  _418
REMARK  168  A    between atoms: _420  and  _422
REMARK  169  A    between atoms: _422  and  _423
REMARK  170  A    between atoms: _422  and  _425
REMARK  171  A    between atoms: _425  and  _426
REMARK  172  A    between atoms: _429  and  _431
REMARK  173  A    between atoms: _431  and  _432
REMARK  174  A    between atoms: _431  and  _434
REMARK  175  A    between atoms: _437  and  _439
REMARK  176  A    between atoms: _439  and  _440
REMARK  177  A    between atoms: _439  and  _442
REMARK  178  A    between atoms: _442  and  _443
REMARK  179  A    between atoms: _446  and  _448
REMARK  180  A    between atoms: _448  and  _449
REMARK  181  A    between atoms: _448  and  _451
REMARK  182  A    between atoms: _451  and  _452
REMARK  183  A    between atoms: _454  and  _456
REMARK  184  A    between atoms: _456  and  _457
REMARK  185  A    between atoms: _459  and  _461
REMARK  186  A    between atoms: _461  and  _462
REMARK  187  A    between atoms: _461  and  _464
REMARK  188  A    between atoms: _464  and  _465
REMARK  189  A    between atoms: _468  and  _470
REMARK  190  A    between atoms: _470  and  _471
REMARK  191  A    between atoms: _470  and  _473
REMARK  192  A    between atoms: _473  and  _474
REMARK  193  A    between atoms: _477  and  _479
REMARK  194  A    between atoms: _479  and  _480
REMARK  195  A    between atoms: _479  and  _482
REMARK  196  A    between atoms: _482  and  _483
REMARK  197  A    between atoms: _488  and  _490
REMARK  198  A    between atoms: _490  and  _491
REMARK  199  A    between atoms: _490  and  _493
REMARK  200  A    between atoms: _493  and  _494
REMARK  201  A    between atoms: _494  and  _495
REMARK  202  A    between atoms: _495  and  _496
REMARK  203  A    between atoms: _505  and  _507
REMARK  204  A    between atoms: _507  and  _508
REMARK  205  A    between atoms: _507  and  _510
REMARK  206  A    between atoms: _513  and  _515
REMARK  207  A    between atoms: _515  and  _516
REMARK  208  A    between atoms: _518  and  _520
REMARK  209  A    between atoms: _520  and  _521
REMARK  210  A    between atoms: _524  and  _526
REMARK  211  A    between atoms: _526  and  _527
REMARK  212  A    between atoms: _526  and  _529
REMARK  213  A    between atoms: _532  and  _534
REMARK  214  A    between atoms: _534  and  _535
REMARK  215  A    between atoms: _534  and  _537
REMARK  216  A    between atoms: _537  and  _538
REMARK  217  A    between atoms: _538  and  _539
REMARK                            x       y       z     vdW  Elec       q    Type
REMARK                         _______ _______ _______ _____ _____    ______ ____
ROOT
ATOM      1  O   HOH     1      26.616  17.567  25.877  0.00  0.00    +0.000 OA
ENDROOT
TORSDOF 0
REMARK  Name = ../refined-set-2016/4h3g/4h3g_pocket.pdb
REMARK  217 active torsions:
REMARK  status: ('A' for Active; 'I' for Inactive)
REMARK    1  A    between atoms: _1  and  _3
REMARK    2  A    between atoms: _3  and  _4
REMARK    3  A    between atoms: _3  and  _6
REMARK    4  A    between atoms: _6  and  _7
REMARK    5  A    between atoms: _7  and  _8
REMARK    6  A    between atoms: _8  and  _9
REMARK    7  A    between atoms: _9  and  _10
REMARK    8  A    between atoms: _14  and  _16
REMARK    9  A    between atoms: _16  and  _17
REMARK   10  A    between atoms: _16  and  _19
REMARK   11  A    between atoms: _19  and  _20
REMARK   12  A    between atoms: _22  and  _24
REMARK   13  A    between atoms: _24  and  _25
REMARK   14  A    between atoms: _27  and  _29
REMARK   15  A    between atoms: _29  and  _30
REMARK   16  A    between atoms: _29  and  _32
REMARK   17  A    between atoms: _32  and  _33
REMARK   18  A    between atoms: _33  and  _34
REMARK   19  A    between atoms: _39  and  _41
REMARK   20  A    between atoms: _41  and  _42
REMARK   21  A    between atoms: _44  and  _46
REMARK   22  A    between atoms: _46  and  _47
REMARK   23  A    between atoms: _46  and  _49
REMARK   24  A    between atoms: _49  and  _50
REMARK   25  A    between atoms: _55  and  _56
REMARK   26  A    between atoms: _58  and  _60
REMARK   27  A    between atoms: _60  and  _61
REMARK   28  A    between atoms: _60  and  _63
REMARK   29  A    between atoms: _63  and  _64
REMARK   30  A    between atoms: _67  and  _69
REMARK   31  A    between atoms: _69  and  _70
REMARK   32  A    between atoms: _69  and  _72
REMARK   33  A    between atoms: _75  and  _77
REMARK   34  A    between atoms: _77  and  _78
REMARK   35  A    between atoms: _77  and  _80
REMARK   36  A    between atoms: _80  and  _81
REMARK   37  A    between atoms: _84  and  _86
REMARK   38  A    between atoms: _86  and  _87
REMARK   39  A    between atoms: _86  and  _89
REMARK   40  A    between atoms: _89  and  _90
REMARK   41  A    between atoms: _93  and  _95
REMARK   42  A    between atoms: _95  and  _96
REMARK   43  A    between atoms: _98  and  _100
REMARK   44  A    between atoms: _100  and  _101
REMARK   45  A    between atoms: _100  and  _103
REMARK   46  A    between atoms: _103  and  _104
REMARK   47  A    between atoms: _106  and  _108
REMARK   48  A    between atoms: _108  and  _109
REMARK   49  A    between atoms: _108  and  _111
REMARK   50  A    between atoms: _111  and  _112
REMARK   51  A    between atoms: _114  and  _116
REMARK   52  A    between atoms: _116  and  _117
REMARK   53  A    between atoms: _116  and  _119
REMARK   54  A    between atoms: _119  and  _120
REMARK   55  A    between atoms: _125  and  _127
REMARK   56  A    between atoms: _127  and  _128
REMARK   57  A    between atoms: _127  and  _130
REMARK   58  A    between atoms: _130  and  _131
REMARK   59  A    between atoms: _137  and  _139
REMARK   60  A    between atoms: _139  and  _140
REMARK   61  A    between atoms: _143  and  _145
REMARK   62  A    between atoms: _145  and  _146
REMARK   63  A    between atoms: _145  and  _148
REMARK   64  A    between atoms: _151  and  _153
REMARK   65  A    between atoms: _153  and  _154
REMARK   66  A    between atoms: _153  and  _156
REMARK   67  A    between atoms: _156  and  _157
REMARK   68  A    between atoms: _162  and  _163
REMARK   69  A    between atoms: _165  and  _167
REMARK   70  A    between atoms: _167  and  _168
REMARK   71  A    between atoms: _167  and  _170
REMARK   72  A    between atoms: _174  and  _175
REMARK   73  A    between atoms: _180  and  _182
REMARK   74  A    between atoms: _182  and  _183
REMARK   75  A    between atoms: _182  and  _185
REMARK   76  A    between atoms: _185  and  _186
REMARK   77  A    between atoms: _191  and  _192
REMARK   78  A    between atoms: _194  and  _196
REMARK   79  A    between atoms: _196  and  _197
REMARK   80  A    between atoms: _196  and  _199
REMARK   81  A    between atoms: _199  and  _200
REMARK   82  A    between atoms: _203  and  _205
REMARK   83  A    between atoms: _205  and  _206
REMARK   84  A    between atoms: _205  and  _208
REMARK   85  A    between atoms: _208  and  _209
REMARK   86  A    between atoms: _209  and  _210
REMARK   87  A    between atoms: _215  and  _217
REMARK   88  A    between atoms: _217  and  _218
REMARK   89  A    between atoms: _220  and  _222
REMARK   90  A    between atoms: _222  and  _223
REMARK   91  A    between atoms: _222  and  _225
REMARK   92  A    between atoms: _225  and  _226
REMARK   93  A    between atoms: _226  and  _227
REMARK   94  A    between atoms: _227  and  _228
REMARK   95  A    between atoms: _228  and  _229
REMARK   96  A    between atoms: _233  and  _235
REMARK   97  A    between atoms: _235  and  _236
REMARK   98  A    between atoms: _235  and  _238
REMARK   99  A    between atoms: _238  and  _239
REMARK  100  A    between atoms: _249  and  _251
REMARK  101  A    between atoms: _251  and  _252
REMARK  102  A    between atoms: _251  and  _254
REMARK  103  A    between atoms: _254  and  _255
REMARK  104  A    between atoms: _258  and  _260
REMARK  105  A    between atoms: _260  and  _261
REMARK  106  A    between atoms: _260  and  _263
REMARK  107  A    between atoms: _263  and  _264
REMARK  108  A    between atoms: _264  and  _265
REMARK  109  A    between atoms: _265  and  _266
REMARK  110  A    between atoms: _266  and  _267
REMARK  111  A    between atoms: _271  and  _273
REMARK  112  A    between atoms: _273  and  _274
REMARK  113  A    between atoms: _273  and  _276
REMARK  114  A    between atoms: _276  and  _277
REMARK  115  A    between atoms: _283  and  _285
REMARK  116  A    between atoms: _285  and  _286
REMARK  117  A    between atoms: _285  and  _288
REMARK  118  A    between atoms: _288  and  _289
REMARK  119  A    between atoms: _295  and  _297
REMARK  120  A    between atoms: _297  and  _298
REMARK  121  A    between atoms: _297  and  _300
REMARK  122  A    between atoms: _300  and  _301
REMARK  123  A    between atoms: _304  and  _306
REMARK  124  A    between atoms: _306  and  _307
REMARK  125  A    between atoms: _306  and  _309
REMARK  126  A    between atoms: _309  and  _310
REMARK  127  A    between atoms: _312  and  _314
REMARK  128  A    between atoms: _314  and  _315
REMARK  129  A    between atoms: _314  and  _317
REMARK  130  A    between atoms: _317  and  _318
REMARK  131  A    between atoms: _328  and  _330
REMARK  132  A    between atoms: _330  and  _331
REMARK  133  A    between atoms: _333  and  _335
REMARK  134  A    between atoms: _335  and  _336
REMARK  135  A    between atoms: _335  and  _338
REMARK  136  A    between atoms: _338  and  _339
REMARK  137  A    between atoms: _342  and  _344
REMARK  138  A    between atoms: _344  and  _345
REMARK  139  A    between atoms: _344  and  _347
REMARK  140  A    between atoms: _347  and  _348
REMARK  141  A    between atoms: _351  and  _353
REMARK  142  A    between atoms: _353  and  _354
REMARK  143  A    between atoms: _356  and  _358
REMARK  144  A    between atoms: _358  and  _359
REMARK  145  A    between atoms: _358  and  _361
REMARK  146  A    between atoms: _361  and  _362
REMARK  147  A    between atoms: _365  and  _367
REMARK  148  A    between atoms: _367  and  _368
REMARK  149  A    between atoms: _367  and  _370
REMARK  150  A    between atoms: _370  and  _371
REMARK  151  A    between atoms: _374  and  _376
REMARK  152  A    between atoms: _376  and  _377
REMARK  153  A    between atoms: _380  and  _382
REMARK  154  A    between atoms: _382  and  _383
REMARK  155  A    between atoms: _382  and  _385
REMARK  156  A    between atoms: _385  and  _386
REMARK  157  A    between atoms: _386  and  _387
REMARK  158  A    between atoms: _387  and  _388
REMARK  159  A    between atoms: _397  and  _399
REMARK  160  A    between atoms: _399  and  _400
REMARK  161  A    between atoms: _399  and  _402
REMARK  162  A    between atoms: _402  and  _403
REMARK  163  A    between atoms: _406  and  _408
REMARK  164  A    between atoms: _408  and  _409
REMARK  165  A    between atoms: _408  and  _411
REMARK  166  A    between atoms: _411  and  _412
REMARK  167  A    between atoms: _417  and  _418
REMARK  168  A    between atoms: _420  and  _422
REMARK  169  A    between atoms: _422  and  _423
REMARK  170  A    between atoms: _422  and  _425
REMARK  171  A    between atoms: _425  and  _426
REMARK  172  A    between atoms: _429  and  _431
REMARK  173  A    between atoms: _431  and  _432
REMARK  174  A    between atoms: _431  and  _434
REMARK  175  A    between atoms: _437  and  _439
REMARK  176  A    between atoms: _439  and  _440
REMARK  177  A    between atoms: _439  and  _442
REMARK  178  A    between atoms: _442  and  _443
REMARK  179  A    between atoms: _446  and  _448
REMARK  180  A    between atoms: _448  and  _449
REMARK  181  A    between atoms: _448  and  _451
REMARK  182  A    between atoms: _451  and  _452
REMARK  183  A    between atoms: _454  and  _456
REMARK  184  A    between atoms: _456  and  _457
REMARK  185  A    between atoms: _459  and  _461
REMARK  186  A    between atoms: _461  and  _462
REMARK  187  A    between atoms: _461  and  _464
REMARK  188  A    between atoms: _464  and  _465
REMARK  189  A    between atoms: _468  and  _470
REMARK  190  A    between atoms: _470  and  _471
REMARK  191  A    between atoms: _470  and  _473
REMARK  192  A    between atoms: _473  and  _474
REMARK  193  A    between atoms: _477  and  _479
REMARK  194  A    between atoms: _479  and  _480
REMARK  195  A    between atoms: _479  and  _482
REMARK  196  A    between atoms: _482  and  _483
REMARK  197  A    between atoms: _488  and  _490
REMARK  198  A    between atoms: _490  and  _491
REMARK  199  A    between atoms: _490  and  _493
REMARK  200  A    between atoms: _493  and  _494
REMARK  201  A    between atoms: _494  and  _495
REMARK  202  A    between atoms: _495  and  _496
REMARK  203  A    between atoms: _505  and  _507
REMARK  204  A    between atoms: _507  and  _508
REMARK  205  A    between atoms: _507  and  _510
REMARK  206  A    between atoms: _513  and  _515
REMARK  207  A    between atoms: _515  and  _516
REMARK  208  A    between atoms: _518  and  _520
REMARK  209  A    between atoms: _520  and  _521
REMARK  210  A    between atoms: _524  and  _526
REMARK  211  A    between atoms: _526  and  _527
REMARK  212  A    between atoms: _526  and  _529
REMARK  213  A    between atoms: _532  and  _534
REMARK  214  A    between atoms: _534  and  _535
REMARK  215  A    between atoms: _534  and  _537
REMARK  216  A    between atoms: _537  and  _538
REMARK  217  A    between atoms: _538  and  _539
REMARK                            x       y       z     vdW  Elec       q    Type
REMARK                         _______ _______ _______ _____ _____    ______ ____
ROOT
ATOM      1  O   HOH     1      31.694  17.236  24.644  0.00  0.00    +0.000 OA
ENDROOT
TORSDOF 0
