REMARK  Name = ../refined-set-2016/4bkt/4bkt_pocket.pdb
REMARK  117 active torsions:
REMARK  status: ('A' for Active; 'I' for Inactive)
REMARK    1  A    between atoms: _1  and  _3
REMARK    2  A    between atoms: _3  and  _4
REMARK    3  A    between atoms: _3  and  _6
REMARK    4  A    between atoms: _6  and  _7
REMARK    5  A    between atoms: _9  and  _11
REMARK    6  A    between atoms: _11  and  _12
REMARK    7  A    between atoms: _11  and  _14
REMARK    8  A    between atoms: _17  and  _19
REMARK    9  A    between atoms: _19  and  _20
REMARK   10  A    between atoms: _19  and  _22
REMARK   11  A    between atoms: _22  and  _23
REMARK   12  A    between atoms: _28  and  _30
REMARK   13  A    between atoms: _30  and  _31
REMARK   14  A    between atoms: _30  and  _33
REMARK   15  A    between atoms: _33  and  _34
REMARK   16  A    between atoms: _36  and  _38
REMARK   17  A    between atoms: _38  and  _39
REMARK   18  A    between atoms: _38  and  _41
REMARK   19  A    between atoms: _41  and  _42
REMARK   20  A    between atoms: _42  and  _43
REMARK   21  A    between atoms: _43  and  _44
REMARK   22  A    between atoms: _53  and  _55
REMARK   23  A    between atoms: _55  and  _56
REMARK   24  A    between atoms: _55  and  _58
REMARK   25  A    between atoms: _58  and  _59
REMARK   26  A    between atoms: _59  and  _60
REMARK   27  A    between atoms: _64  and  _65
REMARK   28  A    between atoms: _70  and  _72
REMARK   29  A    between atoms: _72  and  _73
REMARK   30  A    between atoms: _72  and  _75
REMARK   31  A    between atoms: _75  and  _76
REMARK   32  A    between atoms: _78  and  _80
REMARK   33  A    between atoms: _80  and  _81
REMARK   34  A    between atoms: _80  and  _83
REMARK   35  A    between atoms: _86  and  _88
REMARK   36  A    between atoms: _88  and  _89
REMARK   37  A    between atoms: _88  and  _91
REMARK   38  A    between atoms: _91  and  _92
REMARK   39  A    between atoms: _99  and  _100
REMARK   40  A    between atoms: _105  and  _107
REMARK   41  A    between atoms: _107  and  _108
REMARK   42  A    between atoms: _107  and  _110
REMARK   43  A    between atoms: _113  and  _115
REMARK   44  A    between atoms: _115  and  _116
REMARK   45  A    between atoms: _115  and  _118
REMARK   46  A    between atoms: _118  and  _119
REMARK   47  A    between atoms: _129  and  _131
REMARK   48  A    between atoms: _131  and  _132
REMARK   49  A    between atoms: _131  and  _134
REMARK   50  A    between atoms: _134  and  _135
REMARK   51  A    between atoms: _138  and  _140
REMARK   52  A    between atoms: _140  and  _141
REMARK   53  A    between atoms: _140  and  _143
REMARK   54  A    between atoms: _143  and  _144
REMARK   55  A    between atoms: _149  and  _151
REMARK   56  A    between atoms: _151  and  _152
REMARK   57  A    between atoms: _151  and  _154
REMARK   58  A    between atoms: _154  and  _155
REMARK   59  A    between atoms: _161  and  _163
REMARK   60  A    between atoms: _163  and  _164
REMARK   61  A    between atoms: _163  and  _166
REMARK   62  A    between atoms: _166  and  _167
REMARK   63  A    between atoms: _167  and  _168
REMARK   64  A    between atoms: _173  and  _175
REMARK   65  A    between atoms: _175  and  _176
REMARK   66  A    between atoms: _175  and  _178
REMARK   67  A    between atoms: _178  and  _179
REMARK   68  A    between atoms: _184  and  _185
REMARK   69  A    between atoms: _188  and  _189
REMARK   70  A    between atoms: _194  and  _196
REMARK   71  A    between atoms: _196  and  _197
REMARK   72  A    between atoms: _196  and  _199
REMARK   73  A    between atoms: _199  and  _200
REMARK   74  A    between atoms: _200  and  _201
REMARK   75  A    between atoms: _201  and  _202
REMARK   76  A    between atoms: _211  and  _213
REMARK   77  A    between atoms: _213  and  _214
REMARK   78  A    between atoms: _213  and  _216
REMARK   79  A    between atoms: _216  and  _217
REMARK   80  A    between atoms: _220  and  _222
REMARK   81  A    between atoms: _222  and  _223
REMARK   82  A    between atoms: _222  and  _225
REMARK   83  A    between atoms: _225  and  _226
REMARK   84  A    between atoms: _231  and  _233
REMARK   85  A    between atoms: _233  and  _234
REMARK   86  A    between atoms: _233  and  _236
REMARK   87  A    between atoms: _236  and  _237
REMARK   88  A    between atoms: _239  and  _241
REMARK   89  A    between atoms: _241  and  _242
REMARK   90  A    between atoms: _241  and  _244
REMARK   91  A    between atoms: _244  and  _245
REMARK   92  A    between atoms: _250  and  _251
REMARK   93  A    between atoms: _253  and  _255
REMARK   94  A    between atoms: _255  and  _256
REMARK   95  A    between atoms: _255  and  _258
REMARK   96  A    between atoms: _258  and  _259
REMARK   97  A    between atoms: _259  and  _260
REMARK   98  A    between atoms: _260  and  _261
REMARK   99  A    between atoms: _270  and  _272
REMARK  100  A    between atoms: _272  and  _273
REMARK  101  A    between atoms: _275  and  _277
REMARK  102  A    between atoms: _277  and  _278
REMARK  103  A    between atoms: _277  and  _280
REMARK  104  A    between atoms: _280  and  _281
REMARK  105  A    between atoms: _286  and  _288
REMARK  106  A    between atoms: _288  and  _289
REMARK  107  A    between atoms: _288  and  _291
REMARK  108  A    between atoms: _291  and  _292
REMARK  109  A    between atoms: _295  and  _297
REMARK  110  A    between atoms: _297  and  _298
REMARK  111  A    between atoms: _297  and  _300
REMARK  112  A    between atoms: _300  and  _301
REMARK  113  A    between atoms: _311  and  _313
REMARK  114  A    between atoms: _313  and  _314
REMARK  115  A    between atoms: _313  and  _316
REMARK  116  A    between atoms: _316  and  _317
REMARK  117  A    between atoms: _324  and  _325
REMARK                            x       y       z     vdW  Elec       q    Type
REMARK                         _______ _______ _______ _____ _____    ______ ____
ROOT
ATOM      1  CA  ARG A   5     -14.360  36.802  -5.257  0.00  0.00    +0.149 C 
ENDROOT
BRANCH   1   2
ATOM      2  C   ARG A   5     -15.233  37.625  -4.260  0.00  0.00    +0.241 C 
ATOM      3  N   GLU A   6     -16.079  36.911  -3.471  0.00  0.00    -0.297 N 
ATOM      4  H   GLU A   6     -16.067  35.879  -3.597  0.00  0.00    +0.150 HD
ATOM      5  O   ARG A   5     -15.129  38.851  -4.206  0.00  0.00    -0.273 OA
BRANCH   3   6
ATOM      6  CA  GLU A   6     -17.002  37.432  -2.467  0.00  0.00    +0.149 C 
BRANCH   6   7
ATOM      7  C   GLU A   6     -16.418  37.278  -1.068  0.00  0.00    +0.244 C 
ATOM      8  N   PRO A   7     -15.861  38.364  -0.479  0.00  0.00    -0.272 N 
ATOM      9  CA  PRO A   7     -15.254  38.239   0.860  0.00  0.00    +0.152 C 
ATOM     10  CB  PRO A   7     -14.801  39.667   1.194  0.00  0.00    +0.031 C 
ATOM     11  CG  PRO A   7     -14.657  40.336  -0.150  0.00  0.00    +0.024 C 
ATOM     12  CD  PRO A   7     -15.723  39.743  -1.008  0.00  0.00    +0.094 C 
ATOM     13  O   GLU A   6     -16.458  36.181  -0.513  0.00  0.00    -0.273 OA
BRANCH   9  14
ATOM     14  C   PRO A   7     -16.165  37.677   1.935  0.00  0.00    +0.241 C 
ATOM     15  N   SER A   8     -15.574  36.823   2.761  0.00  0.00    -0.296 N 
ATOM     16  H   SER A   8     -14.575  36.589   2.591  0.00  0.00    +0.150 HD
ATOM     17  O   PRO A   7     -17.366  37.960   1.985  0.00  0.00    -0.273 OA
BRANCH  15  18
ATOM     18  CA  SER A   8     -16.237  36.200   3.882  0.00  0.00    +0.166 C 
BRANCH  18  19
ATOM     19  C   SER A   8     -15.251  36.179   5.044  0.00  0.00    +0.229 C 
ATOM     20  O   SER A   8     -14.225  35.500   4.973  0.00  0.00    -0.286 OA
ENDBRANCH  18  19
BRANCH  18  21
ATOM     21  CB  SER A   8     -16.719  34.794   3.519  0.00  0.00    +0.165 C 
BRANCH  21  22
ATOM     22  OG  SER A   8     -17.579  34.238   4.502  0.00  0.00    -0.380 OA
ATOM     23  H   SER A   8     -18.377  34.815   4.605  0.00  0.00    +0.211 HD
ENDBRANCH  21  22
ENDBRANCH  18  21
ENDBRANCH  15  18
ENDBRANCH   9  14
ENDBRANCH   6   7
BRANCH   6  24
ATOM     24  CB  GLU A   6     -18.372  36.754  -2.574  0.00  0.00    +0.041 C 
BRANCH  24  25
ATOM     25  CG  GLU A   6     -19.299  37.488  -3.522  0.00  0.00    +0.116 C 
BRANCH  25  26
ATOM     26  CD  GLU A   6     -20.709  36.942  -3.531  0.00  0.00    +0.365 C 
ATOM     27  OE2 GLU A   6     -21.605  37.586  -2.936  0.00  0.00    -0.246 OA
ATOM     28  OE1 GLU A   6     -20.911  35.851  -4.110  0.00  0.00    -0.246 OA
ENDBRANCH  25  26
ENDBRANCH  24  25
ENDBRANCH   6  24
ENDBRANCH   3   6
ENDBRANCH   1   2
BRANCH   1  30
ATOM     29  C   SER A   4     -16.171  35.233  -6.013  0.00  0.00    +0.243 C 
ATOM     30  N   ARG A   5     -14.944  35.468  -5.474  0.00  0.00    -0.297 N 
ATOM     31  H   ARG A   5     -14.376  34.643  -5.194  0.00  0.00    +0.150 HD
ATOM     32  O   SER A   4     -16.957  36.128  -6.365  0.00  0.00    -0.273 OA
BRANCH  29  33
ATOM     33  CA  SER A   4     -16.607  33.780  -6.100  0.00  0.00    +0.178 C 
BRANCH  33  35
ATOM     34  C   ASN A   3     -14.830  32.585  -7.358  0.00  0.00    +0.241 C 
ATOM     35  N   SER A   4     -15.488  32.836  -6.214  0.00  0.00    -0.295 N 
ATOM     36  H   SER A   4     -15.186  32.331  -5.356  0.00  0.00    +0.150 HD
ATOM     37  O   ASN A   3     -15.088  33.166  -8.420  0.00  0.00    -0.273 OA
BRANCH  34  38
ATOM     38  CA  ASN A   3     -13.733  31.493  -7.291  0.00  0.00    +0.158 C 
BRANCH  38  41
ATOM     39  C   VAL A   2     -14.744  29.673  -6.054  0.00  0.00    +0.241 C 
ATOM     40  O   VAL A   2     -14.586  30.281  -5.003  0.00  0.00    -0.273 OA
ATOM     41  N   ASN A   3     -14.330  30.161  -7.219  0.00  0.00    -0.297 N 
ATOM     42  H   ASN A   3     -14.431  29.592  -8.084  0.00  0.00    +0.150 HD
BRANCH  39  43
ATOM     43  CA  VAL A   2     -15.390  28.274  -6.035  0.00  0.00    +0.148 C 
BRANCH  43  45
ATOM     44  C   SER A   1     -13.609  26.805  -5.243  0.00  0.00    +0.241 C 
ATOM     45  N   VAL A   2     -14.709  27.514  -4.995  0.00  0.00    -0.297 N 
ATOM     46  H   VAL A   2     -15.094  27.525  -4.029  0.00  0.00    +0.150 HD
ATOM     47  O   SER A   1     -13.122  26.678  -6.371  0.00  0.00    -0.274 OA
BRANCH  44  48
ATOM     48  CA  SER A   1     -12.956  26.163  -4.031  0.00  0.00    +0.174 C 
BRANCH  48  49
ATOM     49  N   SER A   1     -12.280  24.919  -4.401  0.00  0.00    -0.236 NA
ATOM     50  H   SER A   1     -11.243  24.918  -4.485  0.00  0.00    +0.142 HD
ENDBRANCH  48  49
BRANCH  48  51
ATOM     51  CB  SER A   1     -11.974  27.160  -3.437  0.00  0.00    +0.163 C 
BRANCH  51  52
ATOM     52  OG  SER A   1     -11.607  26.784  -2.127  0.00  0.00    -0.380 OA
ATOM     53  H   SER A   1     -11.181  25.891  -2.148  0.00  0.00    +0.211 HD
ENDBRANCH  51  52
ENDBRANCH  48  51
ENDBRANCH  44  48
ENDBRANCH  43  45
BRANCH  43  54
ATOM     54  CB  VAL A   2     -16.915  28.265  -5.767  0.00  0.00    +0.027 C 
ATOM     55  CG2 VAL A   2     -17.585  29.575  -6.134  0.00  0.00    +0.002 C 
ATOM     56  CG1 VAL A   2     -17.577  27.094  -6.484  0.00  0.00    +0.002 C 
ENDBRANCH  43  54
ENDBRANCH  39  43
ENDBRANCH  38  41
BRANCH  38  57
ATOM     57  CB  ASN A   3     -12.746  31.569  -8.448  0.00  0.00    +0.114 C 
BRANCH  57  58
ATOM     58  CG  ASN A   3     -11.875  32.788  -8.477  0.00  0.00    +0.222 C 
ATOM     59  ND2 ASN A   3     -11.673  33.453  -7.355  0.00  0.00    -0.329 N 
ATOM     60 HD21 ASN A   3     -12.149  33.154  -6.480  0.00  0.00    +0.145 HD
ATOM     61 HD22 ASN A   3     -11.038  34.276  -7.346  0.00  0.00    +0.145 HD
ATOM     62  OD1 ASN A   3     -11.331  33.118  -9.511  0.00  0.00    -0.275 OA
ENDBRANCH  57  58
ENDBRANCH  38  57
ENDBRANCH  34  38
ENDBRANCH  33  35
BRANCH  33  63
ATOM     63  CB  SER A   4     -17.454  33.440  -4.884  0.00  0.00    +0.166 C 
BRANCH  63  64
ATOM     64  OG  SER A   4     -16.743  33.705  -3.685  0.00  0.00    -0.380 OA
ATOM     65  H   SER A   4     -17.312  33.477  -2.908  0.00  0.00    +0.211 HD
ENDBRANCH  63  64
ENDBRANCH  33  63
ENDBRANCH  29  33
ENDBRANCH   1  30
BRANCH   1  66
ATOM     66  CB  ARG A   5     -14.143  37.558  -6.599  0.00  0.00    +0.033 C 
BRANCH  66  67
ATOM     67  CG  ARG A   5     -13.035  37.004  -7.504  0.00  0.00    +0.045 C 
BRANCH  67  68
ATOM     68  CD  ARG A   5     -13.346  37.205  -8.993  0.00  0.00    +0.174 C 
BRANCH  68  69
ATOM     69  NE  ARG A   5     -14.314  36.207  -9.470  0.00  0.00    -0.265 N 
ATOM     70  HE  ARG A   5     -13.985  35.223  -9.547  0.00  0.00    +0.259 HD
ATOM     71  CZ  ARG A   5     -15.576  36.456  -9.812  0.00  0.00    +0.342 C 
ATOM     72  NH2 ARG A   5     -16.044  37.700  -9.795  0.00  0.00    -0.292 N 
ATOM     73 HH21 ARG A   5     -15.423  38.485  -9.513  0.00  0.00    +0.255 HD
ATOM     74 HH22 ARG A   5     -17.031  37.888 -10.063  0.00  0.00    +0.255 HD
ATOM     75  NH1 ARG A   5     -16.371  35.467 -10.202  0.00  0.00    -0.292 N 
ATOM     76 HH11 ARG A   5     -16.008  34.493 -10.241  0.00  0.00    +0.255 HD
ATOM     77 HH12 ARG A   5     -17.356  35.666 -10.468  0.00  0.00    +0.255 HD
ENDBRANCH  68  69
ENDBRANCH  67  68
ENDBRANCH  66  67
ENDBRANCH   1  66
TORSDOF 31
REMARK  Name = ../refined-set-2016/4bkt/4bkt_pocket.pdb
REMARK  117 active torsions:
REMARK  status: ('A' for Active; 'I' for Inactive)
REMARK    1  A    between atoms: _1  and  _3
REMARK    2  A    between atoms: _3  and  _4
REMARK    3  A    between atoms: _3  and  _6
REMARK    4  A    between atoms: _6  and  _7
REMARK    5  A    between atoms: _9  and  _11
REMARK    6  A    between atoms: _11  and  _12
REMARK    7  A    between atoms: _11  and  _14
REMARK    8  A    between atoms: _17  and  _19
REMARK    9  A    between atoms: _19  and  _20
REMARK   10  A    between atoms: _19  and  _22
REMARK   11  A    between atoms: _22  and  _23
REMARK   12  A    between atoms: _28  and  _30
REMARK   13  A    between atoms: _30  and  _31
REMARK   14  A    between atoms: _30  and  _33
REMARK   15  A    between atoms: _33  and  _34
REMARK   16  A    between atoms: _36  and  _38
REMARK   17  A    between atoms: _38  and  _39
REMARK   18  A    between atoms: _38  and  _41
REMARK   19  A    between atoms: _41  and  _42
REMARK   20  A    between atoms: _42  and  _43
REMARK   21  A    between atoms: _43  and  _44
REMARK   22  A    between atoms: _53  and  _55
REMARK   23  A    between atoms: _55  and  _56
REMARK   24  A    between atoms: _55  and  _58
REMARK   25  A    between atoms: _58  and  _59
REMARK   26  A    between atoms: _59  and  _60
REMARK   27  A    between atoms: _64  and  _65
REMARK   28  A    between atoms: _70  and  _72
REMARK   29  A    between atoms: _72  and  _73
REMARK   30  A    between atoms: _72  and  _75
REMARK   31  A    between atoms: _75  and  _76
REMARK   32  A    between atoms: _78  and  _80
REMARK   33  A    between atoms: _80  and  _81
REMARK   34  A    between atoms: _80  and  _83
REMARK   35  A    between atoms: _86  and  _88
REMARK   36  A    between atoms: _88  and  _89
REMARK   37  A    between atoms: _88  and  _91
REMARK   38  A    between atoms: _91  and  _92
REMARK   39  A    between atoms: _99  and  _100
REMARK   40  A    between atoms: _105  and  _107
REMARK   41  A    between atoms: _107  and  _108
REMARK   42  A    between atoms: _107  and  _110
REMARK   43  A    between atoms: _113  and  _115
REMARK   44  A    between atoms: _115  and  _116
REMARK   45  A    between atoms: _115  and  _118
REMARK   46  A    between atoms: _118  and  _119
REMARK   47  A    between atoms: _129  and  _131
REMARK   48  A    between atoms: _131  and  _132
REMARK   49  A    between atoms: _131  and  _134
REMARK   50  A    between atoms: _134  and  _135
REMARK   51  A    between atoms: _138  and  _140
REMARK   52  A    between atoms: _140  and  _141
REMARK   53  A    between atoms: _140  and  _143
REMARK   54  A    between atoms: _143  and  _144
REMARK   55  A    between atoms: _149  and  _151
REMARK   56  A    between atoms: _151  and  _152
REMARK   57  A    between atoms: _151  and  _154
REMARK   58  A    between atoms: _154  and  _155
REMARK   59  A    between atoms: _161  and  _163
REMARK   60  A    between atoms: _163  and  _164
REMARK   61  A    between atoms: _163  and  _166
REMARK   62  A    between atoms: _166  and  _167
REMARK   63  A    between atoms: _167  and  _168
REMARK   64  A    between atoms: _173  and  _175
REMARK   65  A    between atoms: _175  and  _176
REMARK   66  A    between atoms: _175  and  _178
REMARK   67  A    between atoms: _178  and  _179
REMARK   68  A    between atoms: _184  and  _185
REMARK   69  A    between atoms: _188  and  _189
REMARK   70  A    between atoms: _194  and  _196
REMARK   71  A    between atoms: _196  and  _197
REMARK   72  A    between atoms: _196  and  _199
REMARK   73  A    between atoms: _199  and  _200
REMARK   74  A    between atoms: _200  and  _201
REMARK   75  A    between atoms: _201  and  _202
REMARK   76  A    between atoms: _211  and  _213
REMARK   77  A    between atoms: _213  and  _214
REMARK   78  A    between atoms: _213  and  _216
REMARK   79  A    between atoms: _216  and  _217
REMARK   80  A    between atoms: _220  and  _222
REMARK   81  A    between atoms: _222  and  _223
REMARK   82  A    between atoms: _222  and  _225
REMARK   83  A    between atoms: _225  and  _226
REMARK   84  A    between atoms: _231  and  _233
REMARK   85  A    between atoms: _233  and  _234
REMARK   86  A    between atoms: _233  and  _236
REMARK   87  A    between atoms: _236  and  _237
REMARK   88  A    between atoms: _239  and  _241
REMARK   89  A    between atoms: _241  and  _242
REMARK   90  A    between atoms: _241  and  _244
REMARK   91  A    between atoms: _244  and  _245
REMARK   92  A    between atoms: _250  and  _251
REMARK   93  A    between atoms: _253  and  _255
REMARK   94  A    between atoms: _255  and  _256
REMARK   95  A    between atoms: _255  and  _258
REMARK   96  A    between atoms: _258  and  _259
REMARK   97  A    between atoms: _259  and  _260
REMARK   98  A    between atoms: _260  and  _261
REMARK   99  A    between atoms: _270  and  _272
REMARK  100  A    between atoms: _272  and  _273
REMARK  101  A    between atoms: _275  and  _277
REMARK  102  A    between atoms: _277  and  _278
REMARK  103  A    between atoms: _277  and  _280
REMARK  104  A    between atoms: _280  and  _281
REMARK  105  A    between atoms: _286  and  _288
REMARK  106  A    between atoms: _288  and  _289
REMARK  107  A    between atoms: _288  and  _291
REMARK  108  A    between atoms: _291  and  _292
REMARK  109  A    between atoms: _295  and  _297
REMARK  110  A    between atoms: _297  and  _298
REMARK  111  A    between atoms: _297  and  _300
REMARK  112  A    between atoms: _300  and  _301
REMARK  113  A    between atoms: _311  and  _313
REMARK  114  A    between atoms: _313  and  _314
REMARK  115  A    between atoms: _313  and  _316
REMARK  116  A    between atoms: _316  and  _317
REMARK  117  A    between atoms: _324  and  _325
REMARK                            x       y       z     vdW  Elec       q    Type
REMARK                         _______ _______ _______ _____ _____    ______ ____
ROOT
ATOM      1  CA  VAL A   1     -14.114  33.755   9.274  0.00  0.00    +0.133 C 
ENDROOT
BRANCH   1   2
ATOM      2  CB  VAL A   1     -13.668  32.571   8.334  0.00  0.00    +0.023 C 
ATOM      3  CG2 VAL A   1     -13.478  31.251   9.093  0.00  0.00    +0.002 C 
ATOM      4  CG1 VAL A   1     -14.638  32.374   7.184  0.00  0.00    +0.002 C 
ENDBRANCH   1   2
BRANCH   1   5
ATOM      5  N   VAL A   1     -14.001  35.017   8.540  0.00  0.00    -0.239 NA
ATOM      6  H   VAL A   1     -13.046  35.365   8.323  0.00  0.00    +0.142 HD
ENDBRANCH   1   5
BRANCH   1   7
ATOM      7  C   VAL A   1     -13.252  33.801  10.547  0.00  0.00    +0.224 C 
ATOM      8  O   VAL A   1     -12.159  34.368  10.522  0.00  0.00    -0.287 OA
ENDBRANCH   1   7
TORSDOF 3
REMARK  Name = ../refined-set-2016/4bkt/4bkt_pocket.pdb
REMARK  117 active torsions:
REMARK  status: ('A' for Active; 'I' for Inactive)
REMARK    1  A    between atoms: _1  and  _3
REMARK    2  A    between atoms: _3  and  _4
REMARK    3  A    between atoms: _3  and  _6
REMARK    4  A    between atoms: _6  and  _7
REMARK    5  A    between atoms: _9  and  _11
REMARK    6  A    between atoms: _11  and  _12
REMARK    7  A    between atoms: _11  and  _14
REMARK    8  A    between atoms: _17  and  _19
REMARK    9  A    between atoms: _19  and  _20
REMARK   10  A    between atoms: _19  and  _22
REMARK   11  A    between atoms: _22  and  _23
REMARK   12  A    between atoms: _28  and  _30
REMARK   13  A    between atoms: _30  and  _31
REMARK   14  A    between atoms: _30  and  _33
REMARK   15  A    between atoms: _33  and  _34
REMARK   16  A    between atoms: _36  and  _38
REMARK   17  A    between atoms: _38  and  _39
REMARK   18  A    between atoms: _38  and  _41
REMARK   19  A    between atoms: _41  and  _42
REMARK   20  A    between atoms: _42  and  _43
REMARK   21  A    between atoms: _43  and  _44
REMARK   22  A    between atoms: _53  and  _55
REMARK   23  A    between atoms: _55  and  _56
REMARK   24  A    between atoms: _55  and  _58
REMARK   25  A    between atoms: _58  and  _59
REMARK   26  A    between atoms: _59  and  _60
REMARK   27  A    between atoms: _64  and  _65
REMARK   28  A    between atoms: _70  and  _72
REMARK   29  A    between atoms: _72  and  _73
REMARK   30  A    between atoms: _72  and  _75
REMARK   31  A    between atoms: _75  and  _76
REMARK   32  A    between atoms: _78  and  _80
REMARK   33  A    between atoms: _80  and  _81
REMARK   34  A    between atoms: _80  and  _83
REMARK   35  A    between atoms: _86  and  _88
REMARK   36  A    between atoms: _88  and  _89
REMARK   37  A    between atoms: _88  and  _91
REMARK   38  A    between atoms: _91  and  _92
REMARK   39  A    between atoms: _99  and  _100
REMARK   40  A    between atoms: _105  and  _107
REMARK   41  A    between atoms: _107  and  _108
REMARK   42  A    between atoms: _107  and  _110
REMARK   43  A    between atoms: _113  and  _115
REMARK   44  A    between atoms: _115  and  _116
REMARK   45  A    between atoms: _115  and  _118
REMARK   46  A    between atoms: _118  and  _119
REMARK   47  A    between atoms: _129  and  _131
REMARK   48  A    between atoms: _131  and  _132
REMARK   49  A    between atoms: _131  and  _134
REMARK   50  A    between atoms: _134  and  _135
REMARK   51  A    between atoms: _138  and  _140
REMARK   52  A    between atoms: _140  and  _141
REMARK   53  A    between atoms: _140  and  _143
REMARK   54  A    between atoms: _143  and  _144
REMARK   55  A    between atoms: _149  and  _151
REMARK   56  A    between atoms: _151  and  _152
REMARK   57  A    between atoms: _151  and  _154
REMARK   58  A    between atoms: _154  and  _155
REMARK   59  A    between atoms: _161  and  _163
REMARK   60  A    between atoms: _163  and  _164
REMARK   61  A    between atoms: _163  and  _166
REMARK   62  A    between atoms: _166  and  _167
REMARK   63  A    between atoms: _167  and  _168
REMARK   64  A    between atoms: _173  and  _175
REMARK   65  A    between atoms: _175  and  _176
REMARK   66  A    between atoms: _175  and  _178
REMARK   67  A    between atoms: _178  and  _179
REMARK   68  A    between atoms: _184  and  _185
REMARK   69  A    between atoms: _188  and  _189
REMARK   70  A    between atoms: _194  and  _196
REMARK   71  A    between atoms: _196  and  _197
REMARK   72  A    between atoms: _196  and  _199
REMARK   73  A    between atoms: _199  and  _200
REMARK   74  A    between atoms: _200  and  _201
REMARK   75  A    between atoms: _201  and  _202
REMARK   76  A    between atoms: _211  and  _213
REMARK   77  A    between atoms: _213  and  _214
REMARK   78  A    between atoms: _213  and  _216
REMARK   79  A    between atoms: _216  and  _217
REMARK   80  A    between atoms: _220  and  _222
REMARK   81  A    between atoms: _222  and  _223
REMARK   82  A    between atoms: _222  and  _225
REMARK   83  A    between atoms: _225  and  _226
REMARK   84  A    between atoms: _231  and  _233
REMARK   85  A    between atoms: _233  and  _234
REMARK   86  A    between atoms: _233  and  _236
REMARK   87  A    between atoms: _236  and  _237
REMARK   88  A    between atoms: _239  and  _241
REMARK   89  A    between atoms: _241  and  _242
REMARK   90  A    between atoms: _241  and  _244
REMARK   91  A    between atoms: _244  and  _245
REMARK   92  A    between atoms: _250  and  _251
REMARK   93  A    between atoms: _253  and  _255
REMARK   94  A    between atoms: _255  and  _256
REMARK   95  A    between atoms: _255  and  _258
REMARK   96  A    between atoms: _258  and  _259
REMARK   97  A    between atoms: _259  and  _260
REMARK   98  A    between atoms: _260  and  _261
REMARK   99  A    between atoms: _270  and  _272
REMARK  100  A    between atoms: _272  and  _273
REMARK  101  A    between atoms: _275  and  _277
REMARK  102  A    between atoms: _277  and  _278
REMARK  103  A    between atoms: _277  and  _280
REMARK  104  A    between atoms: _280  and  _281
REMARK  105  A    between atoms: _286  and  _288
REMARK  106  A    between atoms: _288  and  _289
REMARK  107  A    between atoms: _288  and  _291
REMARK  108  A    between atoms: _291  and  _292
REMARK  109  A    between atoms: _295  and  _297
REMARK  110  A    between atoms: _297  and  _298
REMARK  111  A    between atoms: _297  and  _300
REMARK  112  A    between atoms: _300  and  _301
REMARK  113  A    between atoms: _311  and  _313
REMARK  114  A    between atoms: _313  and  _314
REMARK  115  A    between atoms: _313  and  _316
REMARK  116  A    between atoms: _316  and  _317
REMARK  117  A    between atoms: _324  and  _325
REMARK                            x       y       z     vdW  Elec       q    Type
REMARK                         _______ _______ _______ _____ _____    ______ ____
ROOT
ATOM      1  CB  PHE A   1      -9.713  29.344  12.457  0.00  0.00    +0.051 C 
ENDROOT
BRANCH   1   2
ATOM      2  CG  PHE A   1      -9.667  29.268  10.952  0.00  0.00    -0.020 A 
ATOM      3  CD2 PHE A   1      -8.446  29.274  10.279  0.00  0.00    -0.004 A 
ATOM      4  CE2 PHE A   1      -8.391  29.116   8.891  0.00  0.00    -0.000 A 
ATOM      5  CZ  PHE A   1      -9.557  28.960   8.166  0.00  0.00    -0.000 A 
ATOM      6  CE1 PHE A   1     -10.773  28.960   8.804  0.00  0.00    -0.000 A 
ATOM      7  CD1 PHE A   1     -10.828  29.076  10.208  0.00  0.00    -0.004 A 
ENDBRANCH   1   2
BRANCH   1   8
ATOM      8  CA  PHE A   1     -11.054  29.660  13.145  0.00  0.00    +0.137 C 
BRANCH   8   9
ATOM      9  N   PHE A   1     -11.423  31.059  12.954  0.00  0.00    -0.239 NA
ATOM     10  H   PHE A   1     -10.681  31.763  12.765  0.00  0.00    +0.142 HD
ENDBRANCH   8   9
BRANCH   8  11
ATOM     11  C   PHE A   1     -10.900  29.478  14.645  0.00  0.00    +0.224 C 
ATOM     12  O   PHE A   1     -10.023  30.108  15.245  0.00  0.00    -0.287 OA
ENDBRANCH   8  11
ENDBRANCH   1   8
TORSDOF 4
REMARK  Name = ../refined-set-2016/4bkt/4bkt_pocket.pdb
REMARK  117 active torsions:
REMARK  status: ('A' for Active; 'I' for Inactive)
REMARK    1  A    between atoms: _1  and  _3
REMARK    2  A    between atoms: _3  and  _4
REMARK    3  A    between atoms: _3  and  _6
REMARK    4  A    between atoms: _6  and  _7
REMARK    5  A    between atoms: _9  and  _11
REMARK    6  A    between atoms: _11  and  _12
REMARK    7  A    between atoms: _11  and  _14
REMARK    8  A    between atoms: _17  and  _19
REMARK    9  A    between atoms: _19  and  _20
REMARK   10  A    between atoms: _19  and  _22
REMARK   11  A    between atoms: _22  and  _23
REMARK   12  A    between atoms: _28  and  _30
REMARK   13  A    between atoms: _30  and  _31
REMARK   14  A    between atoms: _30  and  _33
REMARK   15  A    between atoms: _33  and  _34
REMARK   16  A    between atoms: _36  and  _38
REMARK   17  A    between atoms: _38  and  _39
REMARK   18  A    between atoms: _38  and  _41
REMARK   19  A    between atoms: _41  and  _42
REMARK   20  A    between atoms: _42  and  _43
REMARK   21  A    between atoms: _43  and  _44
REMARK   22  A    between atoms: _53  and  _55
REMARK   23  A    between atoms: _55  and  _56
REMARK   24  A    between atoms: _55  and  _58
REMARK   25  A    between atoms: _58  and  _59
REMARK   26  A    between atoms: _59  and  _60
REMARK   27  A    between atoms: _64  and  _65
REMARK   28  A    between atoms: _70  and  _72
REMARK   29  A    between atoms: _72  and  _73
REMARK   30  A    between atoms: _72  and  _75
REMARK   31  A    between atoms: _75  and  _76
REMARK   32  A    between atoms: _78  and  _80
REMARK   33  A    between atoms: _80  and  _81
REMARK   34  A    between atoms: _80  and  _83
REMARK   35  A    between atoms: _86  and  _88
REMARK   36  A    between atoms: _88  and  _89
REMARK   37  A    between atoms: _88  and  _91
REMARK   38  A    between atoms: _91  and  _92
REMARK   39  A    between atoms: _99  and  _100
REMARK   40  A    between atoms: _105  and  _107
REMARK   41  A    between atoms: _107  and  _108
REMARK   42  A    between atoms: _107  and  _110
REMARK   43  A    between atoms: _113  and  _115
REMARK   44  A    between atoms: _115  and  _116
REMARK   45  A    between atoms: _115  and  _118
REMARK   46  A    between atoms: _118  and  _119
REMARK   47  A    between atoms: _129  and  _131
REMARK   48  A    between atoms: _131  and  _132
REMARK   49  A    between atoms: _131  and  _134
REMARK   50  A    between atoms: _134  and  _135
REMARK   51  A    between atoms: _138  and  _140
REMARK   52  A    between atoms: _140  and  _141
REMARK   53  A    between atoms: _140  and  _143
REMARK   54  A    between atoms: _143  and  _144
REMARK   55  A    between atoms: _149  and  _151
REMARK   56  A    between atoms: _151  and  _152
REMARK   57  A    between atoms: _151  and  _154
REMARK   58  A    between atoms: _154  and  _155
REMARK   59  A    between atoms: _161  and  _163
REMARK   60  A    between atoms: _163  and  _164
REMARK   61  A    between atoms: _163  and  _166
REMARK   62  A    between atoms: _166  and  _167
REMARK   63  A    between atoms: _167  and  _168
REMARK   64  A    between atoms: _173  and  _175
REMARK   65  A    between atoms: _175  and  _176
REMARK   66  A    between atoms: _175  and  _178
REMARK   67  A    between atoms: _178  and  _179
REMARK   68  A    between atoms: _184  and  _185
REMARK   69  A    between atoms: _188  and  _189
REMARK   70  A    between atoms: _194  and  _196
REMARK   71  A    between atoms: _196  and  _197
REMARK   72  A    between atoms: _196  and  _199
REMARK   73  A    between atoms: _199  and  _200
REMARK   74  A    between atoms: _200  and  _201
REMARK   75  A    between atoms: _201  and  _202
REMARK   76  A    between atoms: _211  and  _213
REMARK   77  A    between atoms: _213  and  _214
REMARK   78  A    between atoms: _213  and  _216
REMARK   79  A    between atoms: _216  and  _217
REMARK   80  A    between atoms: _220  and  _222
REMARK   81  A    between atoms: _222  and  _223
REMARK   82  A    between atoms: _222  and  _225
REMARK   83  A    between atoms: _225  and  _226
REMARK   84  A    between atoms: _231  and  _233
REMARK   85  A    between atoms: _233  and  _234
REMARK   86  A    between atoms: _233  and  _236
REMARK   87  A    between atoms: _236  and  _237
REMARK   88  A    between atoms: _239  and  _241
REMARK   89  A    between atoms: _241  and  _242
REMARK   90  A    between atoms: _241  and  _244
REMARK   91  A    between atoms: _244  and  _245
REMARK   92  A    between atoms: _250  and  _251
REMARK   93  A    between atoms: _253  and  _255
REMARK   94  A    between atoms: _255  and  _256
REMARK   95  A    between atoms: _255  and  _258
REMARK   96  A    between atoms: _258  and  _259
REMARK   97  A    between atoms: _259  and  _260
REMARK   98  A    between atoms: _260  and  _261
REMARK   99  A    between atoms: _270  and  _272
REMARK  100  A    between atoms: _272  and  _273
REMARK  101  A    between atoms: _275  and  _277
REMARK  102  A    between atoms: _277  and  _278
REMARK  103  A    between atoms: _277  and  _280
REMARK  104  A    between atoms: _280  and  _281
REMARK  105  A    between atoms: _286  and  _288
REMARK  106  A    between atoms: _288  and  _289
REMARK  107  A    between atoms: _288  and  _291
REMARK  108  A    between atoms: _291  and  _292
REMARK  109  A    between atoms: _295  and  _297
REMARK  110  A    between atoms: _297  and  _298
REMARK  111  A    between atoms: _297  and  _300
REMARK  112  A    between atoms: _300  and  _301
REMARK  113  A    between atoms: _311  and  _313
REMARK  114  A    between atoms: _313  and  _314
REMARK  115  A    between atoms: _313  and  _316
REMARK  116  A    between atoms: _316  and  _317
REMARK  117  A    between atoms: _324  and  _325
REMARK                            x       y       z     vdW  Elec       q    Type
REMARK                         _______ _______ _______ _____ _____    ______ ____
ROOT
ATOM      1  C   TRP A   3      -7.365  24.718   0.576  0.00  0.00    +0.241 C 
ATOM      2  O   TRP A   3      -6.252  24.439   0.126  0.00  0.00    -0.273 OA
ATOM      3  N   LEU A   4      -8.510  24.337  -0.024  0.00  0.00    -0.297 N 
ATOM      4  H   LEU A   4      -9.429  24.548   0.415  0.00  0.00    +0.150 HD
ENDROOT
BRANCH   3   5
ATOM      5  CA  LEU A   4      -8.447  23.629  -1.290  0.00  0.00    +0.149 C 
BRANCH   5   6
ATOM      6  C   LEU A   4      -8.561  24.670  -2.364  0.00  0.00    +0.241 C 
ATOM      7  O   LEU A   4      -9.612  25.285  -2.514  0.00  0.00    -0.273 OA
ATOM      8  N   ASN A   5      -7.446  24.948  -3.053  0.00  0.00    -0.297 N 
ATOM      9  H   ASN A   5      -6.582  24.405  -2.850  0.00  0.00    +0.150 HD
BRANCH   8  10
ATOM     10  CA  ASN A   5      -7.401  25.986  -4.078  0.00  0.00    +0.158 C 
BRANCH  10  11
ATOM     11  C   ASN A   5      -8.317  25.732  -5.296  0.00  0.00    +0.241 C 
ATOM     12  O   ASN A   5      -9.039  24.732  -5.341  0.00  0.00    -0.273 OA
ATOM     13  N   PHE A   6      -8.273  26.639  -6.283  0.00  0.00    -0.298 N 
ATOM     14  H   PHE A   6      -7.626  27.447  -6.186  0.00  0.00    +0.150 HD
BRANCH  13  15
ATOM     15  CA  PHE A   6      -9.089  26.543  -7.481  0.00  0.00    +0.141 C 
BRANCH  15  16
ATOM     16  C   PHE A   6      -8.823  25.310  -8.364  0.00  0.00    +0.227 C 
ATOM     17  O   PHE A   6      -9.711  24.889  -9.103  0.00  0.00    -0.286 OA
ENDBRANCH  15  16
BRANCH  15  18
ATOM     18  CB  PHE A   6      -9.099  27.874  -8.240  0.00  0.00    +0.054 C 
BRANCH  18  19
ATOM     19  CG  PHE A   6      -9.478  29.026  -7.334  0.00  0.00    -0.020 A 
ATOM     20  CD2 PHE A   6     -10.640  28.978  -6.570  0.00  0.00    -0.004 A 
ATOM     21  CE2 PHE A   6     -10.956  30.012  -5.692  0.00  0.00    -0.000 A 
ATOM     22  CZ  PHE A   6     -10.139  31.121  -5.613  0.00  0.00    -0.000 A 
ATOM     23  CE1 PHE A   6      -8.986  31.184  -6.359  0.00  0.00    -0.000 A 
ATOM     24  CD1 PHE A   6      -8.653  30.133  -7.214  0.00  0.00    -0.004 A 
ENDBRANCH  18  19
ENDBRANCH  15  18
ENDBRANCH  13  15
ENDBRANCH  10  11
BRANCH  10  25
ATOM     25  CB  ASN A   5      -5.957  26.344  -4.449  0.00  0.00    +0.114 C 
BRANCH  25  26
ATOM     26  CG  ASN A   5      -5.191  25.349  -5.275  0.00  0.00    +0.222 C 
ATOM     27  ND2 ASN A   5      -3.902  25.570  -5.402  0.00  0.00    -0.329 N 
ATOM     28 HD21 ASN A   5      -3.461  26.372  -4.908  0.00  0.00    +0.145 HD
ATOM     29 HD22 ASN A   5      -3.323  24.943  -5.997  0.00  0.00    +0.145 HD
ATOM     30  OD1 ASN A   5      -5.729  24.413  -5.847  0.00  0.00    -0.275 OA
ENDBRANCH  25  26
ENDBRANCH  10  25
ENDBRANCH   8  10
ENDBRANCH   5   6
BRANCH   5  31
ATOM     31  CB  LEU A   4      -9.522  22.551  -1.443  0.00  0.00    +0.029 C 
BRANCH  31  32
ATOM     32  CG  LEU A   4      -9.651  21.533  -0.298  0.00  0.00    +0.002 C 
ATOM     33  CD2 LEU A   4      -8.315  20.833   0.002  0.00  0.00    +0.000 C 
ATOM     34  CD1 LEU A   4     -10.742  20.535  -0.618  0.00  0.00    +0.000 C 
ENDBRANCH  31  32
ENDBRANCH   5  31
ENDBRANCH   3   5
BRANCH   1  35
ATOM     35  CA  TRP A   3      -7.465  25.532   1.874  0.00  0.00    +0.153 C 
BRANCH  35  38
ATOM     36  C   VAL A   2      -6.986  24.111   3.801  0.00  0.00    +0.241 C 
ATOM     37  O   VAL A   2      -8.153  23.732   3.889  0.00  0.00    -0.273 OA
ATOM     38  N   TRP A   3      -6.572  24.966   2.873  0.00  0.00    -0.297 N 
ATOM     39  H   TRP A   3      -5.569  25.242   2.860  0.00  0.00    +0.150 HD
BRANCH  36  40
ATOM     40  CA  VAL A   2      -5.929  23.553   4.745  0.00  0.00    +0.148 C 
BRANCH  40  43
ATOM     41  C   PRO A   1      -5.428  24.558   6.927  0.00  0.00    +0.239 C 
ATOM     42  O   PRO A   1      -4.310  24.930   6.555  0.00  0.00    -0.274 OA
ATOM     43  N   VAL A   2      -6.257  23.877   6.129  0.00  0.00    -0.297 N 
ATOM     44  H   VAL A   2      -7.173  23.566   6.511  0.00  0.00    +0.150 HD
BRANCH  41  49
ATOM     45  N   PRO A   1      -4.762  24.501   9.262  0.00  0.00    -0.210 NA
ATOM     46  CD  PRO A   1      -4.113  25.749   9.693  0.00  0.00    +0.089 C 
ATOM     47  CG  PRO A   1      -5.278  26.693   9.752  0.00  0.00    +0.021 C 
ATOM     48  CB  PRO A   1      -6.174  26.294   8.630  0.00  0.00    +0.028 C 
ATOM     49  CA  PRO A   1      -5.885  24.798   8.364  0.00  0.00    +0.149 C 
ENDBRANCH  41  49
ENDBRANCH  40  43
BRANCH  40  50
ATOM     50  CB  VAL A   2      -5.726  22.018   4.539  0.00  0.00    +0.027 C 
ATOM     51  CG2 VAL A   2      -4.613  21.469   5.441  0.00  0.00    +0.002 C 
ATOM     52  CG1 VAL A   2      -5.455  21.677   3.067  0.00  0.00    +0.002 C 
ENDBRANCH  40  50
ENDBRANCH  36  40
ENDBRANCH  35  38
BRANCH  35  53
ATOM     53  CB  TRP A   3      -7.125  27.023   1.613  0.00  0.00    +0.057 C 
BRANCH  53  54
ATOM     54  CG  TRP A   3      -7.943  27.659   0.528  0.00  0.00    -0.002 A 
ATOM     55  CD1 TRP A   3      -9.302  27.744   0.466  0.00  0.00    +0.068 A 
ATOM     56  NE1 TRP A   3      -9.686  28.348  -0.709  0.00  0.00    -0.352 N 
ATOM     57  HE1 TRP A   3     -10.668  28.525  -1.004  0.00  0.00    +0.166 HD
ATOM     58  CE2 TRP A   3      -8.563  28.681  -1.431  0.00  0.00    +0.056 A 
ATOM     59  CZ2 TRP A   3      -8.436  29.349  -2.658  0.00  0.00    +0.017 A 
ATOM     60  CH2 TRP A   3      -7.155  29.592  -3.118  0.00  0.00    +0.001 A 
ATOM     61  CZ3 TRP A   3      -6.028  29.208  -2.373  0.00  0.00    +0.000 A 
ATOM     62  CE3 TRP A   3      -6.155  28.571  -1.152  0.00  0.00    +0.001 A 
ATOM     63  CD2 TRP A   3      -7.443  28.298  -0.659  0.00  0.00    +0.013 A 
ENDBRANCH  53  54
ENDBRANCH  35  53
ENDBRANCH   1  35
TORSDOF 20
REMARK  Name = ../refined-set-2016/4bkt/4bkt_pocket.pdb
REMARK  117 active torsions:
REMARK  status: ('A' for Active; 'I' for Inactive)
REMARK    1  A    between atoms: _1  and  _3
REMARK    2  A    between atoms: _3  and  _4
REMARK    3  A    between atoms: _3  and  _6
REMARK    4  A    between atoms: _6  and  _7
REMARK    5  A    between atoms: _9  and  _11
REMARK    6  A    between atoms: _11  and  _12
REMARK    7  A    between atoms: _11  and  _14
REMARK    8  A    between atoms: _17  and  _19
REMARK    9  A    between atoms: _19  and  _20
REMARK   10  A    between atoms: _19  and  _22
REMARK   11  A    between atoms: _22  and  _23
REMARK   12  A    between atoms: _28  and  _30
REMARK   13  A    between atoms: _30  and  _31
REMARK   14  A    between atoms: _30  and  _33
REMARK   15  A    between atoms: _33  and  _34
REMARK   16  A    between atoms: _36  and  _38
REMARK   17  A    between atoms: _38  and  _39
REMARK   18  A    between atoms: _38  and  _41
REMARK   19  A    between atoms: _41  and  _42
REMARK   20  A    between atoms: _42  and  _43
REMARK   21  A    between atoms: _43  and  _44
REMARK   22  A    between atoms: _53  and  _55
REMARK   23  A    between atoms: _55  and  _56
REMARK   24  A    between atoms: _55  and  _58
REMARK   25  A    between atoms: _58  and  _59
REMARK   26  A    between atoms: _59  and  _60
REMARK   27  A    between atoms: _64  and  _65
REMARK   28  A    between atoms: _70  and  _72
REMARK   29  A    between atoms: _72  and  _73
REMARK   30  A    between atoms: _72  and  _75
REMARK   31  A    between atoms: _75  and  _76
REMARK   32  A    between atoms: _78  and  _80
REMARK   33  A    between atoms: _80  and  _81
REMARK   34  A    between atoms: _80  and  _83
REMARK   35  A    between atoms: _86  and  _88
REMARK   36  A    between atoms: _88  and  _89
REMARK   37  A    between atoms: _88  and  _91
REMARK   38  A    between atoms: _91  and  _92
REMARK   39  A    between atoms: _99  and  _100
REMARK   40  A    between atoms: _105  and  _107
REMARK   41  A    between atoms: _107  and  _108
REMARK   42  A    between atoms: _107  and  _110
REMARK   43  A    between atoms: _113  and  _115
REMARK   44  A    between atoms: _115  and  _116
REMARK   45  A    between atoms: _115  and  _118
REMARK   46  A    between atoms: _118  and  _119
REMARK   47  A    between atoms: _129  and  _131
REMARK   48  A    between atoms: _131  and  _132
REMARK   49  A    between atoms: _131  and  _134
REMARK   50  A    between atoms: _134  and  _135
REMARK   51  A    between atoms: _138  and  _140
REMARK   52  A    between atoms: _140  and  _141
REMARK   53  A    between atoms: _140  and  _143
REMARK   54  A    between atoms: _143  and  _144
REMARK   55  A    between atoms: _149  and  _151
REMARK   56  A    between atoms: _151  and  _152
REMARK   57  A    between atoms: _151  and  _154
REMARK   58  A    between atoms: _154  and  _155
REMARK   59  A    between atoms: _161  and  _163
REMARK   60  A    between atoms: _163  and  _164
REMARK   61  A    between atoms: _163  and  _166
REMARK   62  A    between atoms: _166  and  _167
REMARK   63  A    between atoms: _167  and  _168
REMARK   64  A    between atoms: _173  and  _175
REMARK   65  A    between atoms: _175  and  _176
REMARK   66  A    between atoms: _175  and  _178
REMARK   67  A    between atoms: _178  and  _179
REMARK   68  A    between atoms: _184  and  _185
REMARK   69  A    between atoms: _188  and  _189
REMARK   70  A    between atoms: _194  and  _196
REMARK   71  A    between atoms: _196  and  _197
REMARK   72  A    between atoms: _196  and  _199
REMARK   73  A    between atoms: _199  and  _200
REMARK   74  A    between atoms: _200  and  _201
REMARK   75  A    between atoms: _201  and  _202
REMARK   76  A    between atoms: _211  and  _213
REMARK   77  A    between atoms: _213  and  _214
REMARK   78  A    between atoms: _213  and  _216
REMARK   79  A    between atoms: _216  and  _217
REMARK   80  A    between atoms: _220  and  _222
REMARK   81  A    between atoms: _222  and  _223
REMARK   82  A    between atoms: _222  and  _225
REMARK   83  A    between atoms: _225  and  _226
REMARK   84  A    between atoms: _231  and  _233
REMARK   85  A    between atoms: _233  and  _234
REMARK   86  A    between atoms: _233  and  _236
REMARK   87  A    between atoms: _236  and  _237
REMARK   88  A    between atoms: _239  and  _241
REMARK   89  A    between atoms: _241  and  _242
REMARK   90  A    between atoms: _241  and  _244
REMARK   91  A    between atoms: _244  and  _245
REMARK   92  A    between atoms: _250  and  _251
REMARK   93  A    between atoms: _253  and  _255
REMARK   94  A    between atoms: _255  and  _256
REMARK   95  A    between atoms: _255  and  _258
REMARK   96  A    between atoms: _258  and  _259
REMARK   97  A    between atoms: _259  and  _260
REMARK   98  A    between atoms: _260  and  _261
REMARK   99  A    between atoms: _270  and  _272
REMARK  100  A    between atoms: _272  and  _273
REMARK  101  A    between atoms: _275  and  _277
REMARK  102  A    between atoms: _277  and  _278
REMARK  103  A    between atoms: _277  and  _280
REMARK  104  A    between atoms: _280  and  _281
REMARK  105  A    between atoms: _286  and  _288
REMARK  106  A    between atoms: _288  and  _289
REMARK  107  A    between atoms: _288  and  _291
REMARK  108  A    between atoms: _291  and  _292
REMARK  109  A    between atoms: _295  and  _297
REMARK  110  A    between atoms: _297  and  _298
REMARK  111  A    between atoms: _297  and  _300
REMARK  112  A    between atoms: _300  and  _301
REMARK  113  A    between atoms: _311  and  _313
REMARK  114  A    between atoms: _313  and  _314
REMARK  115  A    between atoms: _313  and  _316
REMARK  116  A    between atoms: _316  and  _317
REMARK  117  A    between atoms: _324  and  _325
REMARK                            x       y       z     vdW  Elec       q    Type
REMARK                         _______ _______ _______ _____ _____    ______ ____
ROOT
ATOM      1  CB  GLN A   1      -3.229  26.022  -0.252  0.00  0.00    +0.035 C 
ENDROOT
BRANCH   1   2
ATOM      2  CA  GLN A   1      -2.828  24.742   0.478  0.00  0.00    +0.134 C 
BRANCH   2   3
ATOM      3  N   GLN A   1      -3.727  23.656   0.140  0.00  0.00    -0.239 NA
ATOM      4  H   GLN A   1      -4.745  23.786   0.308  0.00  0.00    +0.142 HD
ENDBRANCH   2   3
BRANCH   2   5
ATOM      5  C   GLN A   1      -2.790  24.930   2.018  0.00  0.00    +0.224 C 
ATOM      6  O   GLN A   1      -3.770  25.358   2.617  0.00  0.00    -0.287 OA
ENDBRANCH   2   5
ENDBRANCH   1   2
BRANCH   1   7
ATOM      7  CG  GLN A   1      -2.150  27.083  -0.163  0.00  0.00    +0.087 C 
BRANCH   7   8
ATOM      8  CD  GLN A   1      -2.323  28.153  -1.202  0.00  0.00    +0.219 C 
ATOM      9  OE1 GLN A   1      -2.368  29.342  -0.867  0.00  0.00    -0.275 OA
ATOM     10  NE2 GLN A   1      -2.392  27.757  -2.488  0.00  0.00    -0.329 N 
ATOM     11 HE21 GLN A   1      -2.350  26.745  -2.723  0.00  0.00    +0.145 HD
ATOM     12 HE22 GLN A   1      -2.487  28.463  -3.245  0.00  0.00    +0.145 HD
ENDBRANCH   7   8
ENDBRANCH   1   7
TORSDOF 5
REMARK  Name = ../refined-set-2016/4bkt/4bkt_pocket.pdb
REMARK  117 active torsions:
REMARK  status: ('A' for Active; 'I' for Inactive)
REMARK    1  A    between atoms: _1  and  _3
REMARK    2  A    between atoms: _3  and  _4
REMARK    3  A    between atoms: _3  and  _6
REMARK    4  A    between atoms: _6  and  _7
REMARK    5  A    between atoms: _9  and  _11
REMARK    6  A    between atoms: _11  and  _12
REMARK    7  A    between atoms: _11  and  _14
REMARK    8  A    between atoms: _17  and  _19
REMARK    9  A    between atoms: _19  and  _20
REMARK   10  A    between atoms: _19  and  _22
REMARK   11  A    between atoms: _22  and  _23
REMARK   12  A    between atoms: _28  and  _30
REMARK   13  A    between atoms: _30  and  _31
REMARK   14  A    between atoms: _30  and  _33
REMARK   15  A    between atoms: _33  and  _34
REMARK   16  A    between atoms: _36  and  _38
REMARK   17  A    between atoms: _38  and  _39
REMARK   18  A    between atoms: _38  and  _41
REMARK   19  A    between atoms: _41  and  _42
REMARK   20  A    between atoms: _42  and  _43
REMARK   21  A    between atoms: _43  and  _44
REMARK   22  A    between atoms: _53  and  _55
REMARK   23  A    between atoms: _55  and  _56
REMARK   24  A    between atoms: _55  and  _58
REMARK   25  A    between atoms: _58  and  _59
REMARK   26  A    between atoms: _59  and  _60
REMARK   27  A    between atoms: _64  and  _65
REMARK   28  A    between atoms: _70  and  _72
REMARK   29  A    between atoms: _72  and  _73
REMARK   30  A    between atoms: _72  and  _75
REMARK   31  A    between atoms: _75  and  _76
REMARK   32  A    between atoms: _78  and  _80
REMARK   33  A    between atoms: _80  and  _81
REMARK   34  A    between atoms: _80  and  _83
REMARK   35  A    between atoms: _86  and  _88
REMARK   36  A    between atoms: _88  and  _89
REMARK   37  A    between atoms: _88  and  _91
REMARK   38  A    between atoms: _91  and  _92
REMARK   39  A    between atoms: _99  and  _100
REMARK   40  A    between atoms: _105  and  _107
REMARK   41  A    between atoms: _107  and  _108
REMARK   42  A    between atoms: _107  and  _110
REMARK   43  A    between atoms: _113  and  _115
REMARK   44  A    between atoms: _115  and  _116
REMARK   45  A    between atoms: _115  and  _118
REMARK   46  A    between atoms: _118  and  _119
REMARK   47  A    between atoms: _129  and  _131
REMARK   48  A    between atoms: _131  and  _132
REMARK   49  A    between atoms: _131  and  _134
REMARK   50  A    between atoms: _134  and  _135
REMARK   51  A    between atoms: _138  and  _140
REMARK   52  A    between atoms: _140  and  _141
REMARK   53  A    between atoms: _140  and  _143
REMARK   54  A    between atoms: _143  and  _144
REMARK   55  A    between atoms: _149  and  _151
REMARK   56  A    between atoms: _151  and  _152
REMARK   57  A    between atoms: _151  and  _154
REMARK   58  A    between atoms: _154  and  _155
REMARK   59  A    between atoms: _161  and  _163
REMARK   60  A    between atoms: _163  and  _164
REMARK   61  A    between atoms: _163  and  _166
REMARK   62  A    between atoms: _166  and  _167
REMARK   63  A    between atoms: _167  and  _168
REMARK   64  A    between atoms: _173  and  _175
REMARK   65  A    between atoms: _175  and  _176
REMARK   66  A    between atoms: _175  and  _178
REMARK   67  A    between atoms: _178  and  _179
REMARK   68  A    between atoms: _184  and  _185
REMARK   69  A    between atoms: _188  and  _189
REMARK   70  A    between atoms: _194  and  _196
REMARK   71  A    between atoms: _196  and  _197
REMARK   72  A    between atoms: _196  and  _199
REMARK   73  A    between atoms: _199  and  _200
REMARK   74  A    between atoms: _200  and  _201
REMARK   75  A    between atoms: _201  and  _202
REMARK   76  A    between atoms: _211  and  _213
REMARK   77  A    between atoms: _213  and  _214
REMARK   78  A    between atoms: _213  and  _216
REMARK   79  A    between atoms: _216  and  _217
REMARK   80  A    between atoms: _220  and  _222
REMARK   81  A    between atoms: _222  and  _223
REMARK   82  A    between atoms: _222  and  _225
REMARK   83  A    between atoms: _225  and  _226
REMARK   84  A    between atoms: _231  and  _233
REMARK   85  A    between atoms: _233  and  _234
REMARK   86  A    between atoms: _233  and  _236
REMARK   87  A    between atoms: _236  and  _237
REMARK   88  A    between atoms: _239  and  _241
REMARK   89  A    between atoms: _241  and  _242
REMARK   90  A    between atoms: _241  and  _244
REMARK   91  A    between atoms: _244  and  _245
REMARK   92  A    between atoms: _250  and  _251
REMARK   93  A    between atoms: _253  and  _255
REMARK   94  A    between atoms: _255  and  _256
REMARK   95  A    between atoms: _255  and  _258
REMARK   96  A    between atoms: _258  and  _259
REMARK   97  A    between atoms: _259  and  _260
REMARK   98  A    between atoms: _260  and  _261
REMARK   99  A    between atoms: _270  and  _272
REMARK  100  A    between atoms: _272  and  _273
REMARK  101  A    between atoms: _275  and  _277
REMARK  102  A    between atoms: _277  and  _278
REMARK  103  A    between atoms: _277  and  _280
REMARK  104  A    between atoms: _280  and  _281
REMARK  105  A    between atoms: _286  and  _288
REMARK  106  A    between atoms: _288  and  _289
REMARK  107  A    between atoms: _288  and  _291
REMARK  108  A    between atoms: _291  and  _292
REMARK  109  A    between atoms: _295  and  _297
REMARK  110  A    between atoms: _297  and  _298
REMARK  111  A    between atoms: _297  and  _300
REMARK  112  A    between atoms: _300  and  _301
REMARK  113  A    between atoms: _311  and  _313
REMARK  114  A    between atoms: _313  and  _314
REMARK  115  A    between atoms: _313  and  _316
REMARK  116  A    between atoms: _316  and  _317
REMARK  117  A    between atoms: _324  and  _325
REMARK                            x       y       z     vdW  Elec       q    Type
REMARK                         _______ _______ _______ _____ _____    ______ ____
ROOT
ATOM      1  CA  TYR A   1      -2.125  27.973   6.197  0.00  0.00    +0.149 C 
ENDROOT
BRANCH   1   2
ATOM      2  C   TYR A   1      -1.477  27.971   7.601  0.00  0.00    +0.242 C 
ATOM      3  N   PRO A   2      -1.067  29.146   8.188  0.00  0.00    -0.273 N 
ATOM      4  CA  PRO A   2      -0.422  29.126   9.519  0.00  0.00    +0.140 C 
ATOM      5  CB  PRO A   2      -0.385  30.608   9.913  0.00  0.00    +0.030 C 
ATOM      6  CG  PRO A   2      -0.251  31.308   8.594  0.00  0.00    +0.024 C 
ATOM      7  CD  PRO A   2      -1.118  30.526   7.652  0.00  0.00    +0.094 C 
ATOM      8  O   TYR A   1      -1.287  26.872   8.141  0.00  0.00    -0.273 OA
BRANCH   4   9
ATOM      9  C   PRO A   2      -1.153  28.283  10.546  0.00  0.00    +0.227 C 
ATOM     10  O   PRO A   2      -2.378  28.255  10.554  0.00  0.00    -0.286 OA
ENDBRANCH   4   9
ENDBRANCH   1   2
BRANCH   1  11
ATOM     11  N   TYR A   1      -2.100  26.609   5.661  0.00  0.00    -0.238 NA
ATOM     12  H   TYR A   1      -2.590  25.864   6.196  0.00  0.00    +0.142 HD
ENDBRANCH   1  11
BRANCH   1  13
ATOM     13  CB  TYR A   1      -3.583  28.515   6.195  0.00  0.00    +0.053 C 
BRANCH  13  14
ATOM     14  CG  TYR A   1      -3.905  29.251   4.903  0.00  0.00    -0.020 A 
ATOM     15  CD2 TYR A   1      -3.981  30.645   4.869  0.00  0.00    -0.001 A 
ATOM     16  CE2 TYR A   1      -4.266  31.328   3.683  0.00  0.00    +0.036 A 
ATOM     17  CZ  TYR A   1      -4.443  30.621   2.505  0.00  0.00    +0.134 A 
ATOM     18  CE1 TYR A   1      -4.345  29.237   2.505  0.00  0.00    +0.036 A 
ATOM     19  CD1 TYR A   1      -4.070  28.559   3.697  0.00  0.00    -0.001 A 
BRANCH  17  20
ATOM     20  OH  TYR A   1      -4.739  31.295   1.346  0.00  0.00    -0.506 OA
ATOM     21  HH  TYR A   1      -5.588  31.791   1.462  0.00  0.00    +0.292 HD
ENDBRANCH  17  20
ENDBRANCH  13  14
ENDBRANCH   1  13
TORSDOF 6
REMARK  Name = ../refined-set-2016/4bkt/4bkt_pocket.pdb
REMARK  117 active torsions:
REMARK  status: ('A' for Active; 'I' for Inactive)
REMARK    1  A    between atoms: _1  and  _3
REMARK    2  A    between atoms: _3  and  _4
REMARK    3  A    between atoms: _3  and  _6
REMARK    4  A    between atoms: _6  and  _7
REMARK    5  A    between atoms: _9  and  _11
REMARK    6  A    between atoms: _11  and  _12
REMARK    7  A    between atoms: _11  and  _14
REMARK    8  A    between atoms: _17  and  _19
REMARK    9  A    between atoms: _19  and  _20
REMARK   10  A    between atoms: _19  and  _22
REMARK   11  A    between atoms: _22  and  _23
REMARK   12  A    between atoms: _28  and  _30
REMARK   13  A    between atoms: _30  and  _31
REMARK   14  A    between atoms: _30  and  _33
REMARK   15  A    between atoms: _33  and  _34
REMARK   16  A    between atoms: _36  and  _38
REMARK   17  A    between atoms: _38  and  _39
REMARK   18  A    between atoms: _38  and  _41
REMARK   19  A    between atoms: _41  and  _42
REMARK   20  A    between atoms: _42  and  _43
REMARK   21  A    between atoms: _43  and  _44
REMARK   22  A    between atoms: _53  and  _55
REMARK   23  A    between atoms: _55  and  _56
REMARK   24  A    between atoms: _55  and  _58
REMARK   25  A    between atoms: _58  and  _59
REMARK   26  A    between atoms: _59  and  _60
REMARK   27  A    between atoms: _64  and  _65
REMARK   28  A    between atoms: _70  and  _72
REMARK   29  A    between atoms: _72  and  _73
REMARK   30  A    between atoms: _72  and  _75
REMARK   31  A    between atoms: _75  and  _76
REMARK   32  A    between atoms: _78  and  _80
REMARK   33  A    between atoms: _80  and  _81
REMARK   34  A    between atoms: _80  and  _83
REMARK   35  A    between atoms: _86  and  _88
REMARK   36  A    between atoms: _88  and  _89
REMARK   37  A    between atoms: _88  and  _91
REMARK   38  A    between atoms: _91  and  _92
REMARK   39  A    between atoms: _99  and  _100
REMARK   40  A    between atoms: _105  and  _107
REMARK   41  A    between atoms: _107  and  _108
REMARK   42  A    between atoms: _107  and  _110
REMARK   43  A    between atoms: _113  and  _115
REMARK   44  A    between atoms: _115  and  _116
REMARK   45  A    between atoms: _115  and  _118
REMARK   46  A    between atoms: _118  and  _119
REMARK   47  A    between atoms: _129  and  _131
REMARK   48  A    between atoms: _131  and  _132
REMARK   49  A    between atoms: _131  and  _134
REMARK   50  A    between atoms: _134  and  _135
REMARK   51  A    between atoms: _138  and  _140
REMARK   52  A    between atoms: _140  and  _141
REMARK   53  A    between atoms: _140  and  _143
REMARK   54  A    between atoms: _143  and  _144
REMARK   55  A    between atoms: _149  and  _151
REMARK   56  A    between atoms: _151  and  _152
REMARK   57  A    between atoms: _151  and  _154
REMARK   58  A    between atoms: _154  and  _155
REMARK   59  A    between atoms: _161  and  _163
REMARK   60  A    between atoms: _163  and  _164
REMARK   61  A    between atoms: _163  and  _166
REMARK   62  A    between atoms: _166  and  _167
REMARK   63  A    between atoms: _167  and  _168
REMARK   64  A    between atoms: _173  and  _175
REMARK   65  A    between atoms: _175  and  _176
REMARK   66  A    between atoms: _175  and  _178
REMARK   67  A    between atoms: _178  and  _179
REMARK   68  A    between atoms: _184  and  _185
REMARK   69  A    between atoms: _188  and  _189
REMARK   70  A    between atoms: _194  and  _196
REMARK   71  A    between atoms: _196  and  _197
REMARK   72  A    between atoms: _196  and  _199
REMARK   73  A    between atoms: _199  and  _200
REMARK   74  A    between atoms: _200  and  _201
REMARK   75  A    between atoms: _201  and  _202
REMARK   76  A    between atoms: _211  and  _213
REMARK   77  A    between atoms: _213  and  _214
REMARK   78  A    between atoms: _213  and  _216
REMARK   79  A    between atoms: _216  and  _217
REMARK   80  A    between atoms: _220  and  _222
REMARK   81  A    between atoms: _222  and  _223
REMARK   82  A    between atoms: _222  and  _225
REMARK   83  A    between atoms: _225  and  _226
REMARK   84  A    between atoms: _231  and  _233
REMARK   85  A    between atoms: _233  and  _234
REMARK   86  A    between atoms: _233  and  _236
REMARK   87  A    between atoms: _236  and  _237
REMARK   88  A    between atoms: _239  and  _241
REMARK   89  A    between atoms: _241  and  _242
REMARK   90  A    between atoms: _241  and  _244
REMARK   91  A    between atoms: _244  and  _245
REMARK   92  A    between atoms: _250  and  _251
REMARK   93  A    between atoms: _253  and  _255
REMARK   94  A    between atoms: _255  and  _256
REMARK   95  A    between atoms: _255  and  _258
REMARK   96  A    between atoms: _258  and  _259
REMARK   97  A    between atoms: _259  and  _260
REMARK   98  A    between atoms: _260  and  _261
REMARK   99  A    between atoms: _270  and  _272
REMARK  100  A    between atoms: _272  and  _273
REMARK  101  A    between atoms: _275  and  _277
REMARK  102  A    between atoms: _277  and  _278
REMARK  103  A    between atoms: _277  and  _280
REMARK  104  A    between atoms: _280  and  _281
REMARK  105  A    between atoms: _286  and  _288
REMARK  106  A    between atoms: _288  and  _289
REMARK  107  A    between atoms: _288  and  _291
REMARK  108  A    between atoms: _291  and  _292
REMARK  109  A    between atoms: _295  and  _297
REMARK  110  A    between atoms: _297  and  _298
REMARK  111  A    between atoms: _297  and  _300
REMARK  112  A    between atoms: _300  and  _301
REMARK  113  A    between atoms: _311  and  _313
REMARK  114  A    between atoms: _313  and  _314
REMARK  115  A    between atoms: _313  and  _316
REMARK  116  A    between atoms: _316  and  _317
REMARK  117  A    between atoms: _324  and  _325
REMARK                            x       y       z     vdW  Elec       q    Type
REMARK                         _______ _______ _______ _____ _____    ______ ____
ROOT
ATOM      1  C   TYR A   5     -15.477  33.032   0.462  0.00  0.00    +0.241 C 
ATOM      2  O   TYR A   5     -15.280  31.867   0.836  0.00  0.00    -0.273 OA
ATOM      3  N   ARG A   6     -16.655  33.486  -0.005  0.00  0.00    -0.297 N 
ATOM      4  H   ARG A   6     -16.737  34.482  -0.293  0.00  0.00    +0.150 HD
ENDROOT
BRANCH   3   5
ATOM      5  CA  ARG A   6     -17.830  32.608  -0.118  0.00  0.00    +0.149 C 
BRANCH   5   6
ATOM      6  C   ARG A   6     -17.551  31.425  -1.082  0.00  0.00    +0.241 C 
ATOM      7  N   GLY A   7     -17.932  30.216  -0.698  0.00  0.00    -0.295 N 
ATOM      8  H   GLY A   7     -18.395  30.101   0.226  0.00  0.00    +0.150 HD
ATOM      9  O   ARG A   6     -16.965  31.619  -2.135  0.00  0.00    -0.273 OA
BRANCH   7  10
ATOM     10  CA  GLY A   7     -17.720  29.040  -1.537  0.00  0.00    +0.176 C 
BRANCH  10  11
ATOM     11  C   GLY A   7     -16.339  28.406  -1.438  0.00  0.00    +0.243 C 
ATOM     12  N   HIS A   8     -15.436  28.984  -0.641  0.00  0.00    -0.297 N 
ATOM     13  H   HIS A   8     -15.688  29.853  -0.128  0.00  0.00    +0.150 HD
ATOM     14  O   GLY A   7     -16.076  27.387  -2.084  0.00  0.00    -0.273 OA
BRANCH  12  15
ATOM     15  CA  HIS A   8     -14.097  28.414  -0.478  0.00  0.00    +0.155 C 
BRANCH  15  16
ATOM     16  C   HIS A   8     -14.111  27.151   0.399  0.00  0.00    +0.241 C 
ATOM     17  O   HIS A   8     -14.962  27.042   1.275  0.00  0.00    -0.273 OA
ATOM     18  N   LEU A   9     -13.249  26.167   0.105  0.00  0.00    -0.297 N 
ATOM     19  H   LEU A   9     -12.568  26.314  -0.667  0.00  0.00    +0.150 HD
BRANCH  18  20
ATOM     20  CA  LEU A   9     -13.228  24.900   0.824  0.00  0.00    +0.149 C 
BRANCH  20  21
ATOM     21  C   LEU A   9     -12.051  24.793   1.750  0.00  0.00    +0.241 C 
ATOM     22  N   TRP A  10     -12.349  24.489   3.041  0.00  0.00    -0.298 N 
ATOM     23  H   TRP A  10     -13.354  24.376   3.285  0.00  0.00    +0.150 HD
ATOM     24  O   LEU A   9     -10.901  24.973   1.313  0.00  0.00    -0.273 OA
BRANCH  22  25
ATOM     25  CA  TRP A  10     -11.376  24.308   4.113  0.00  0.00    +0.141 C 
BRANCH  25  26
ATOM     26  C   TRP A  10     -11.557  22.993   4.815  0.00  0.00    +0.227 C 
ATOM     27  O   TRP A  10     -12.681  22.509   4.996  0.00  0.00    -0.286 OA
ENDBRANCH  25  26
BRANCH  25  28
ATOM     28  CB  TRP A  10     -11.490  25.403   5.175  0.00  0.00    +0.056 C 
BRANCH  28  29
ATOM     29  CG  TRP A  10     -11.141  26.786   4.723  0.00  0.00    -0.002 A 
ATOM     30  CD2 TRP A  10      -9.850  27.415   4.816  0.00  0.00    +0.013 A 
ATOM     31  CE3 TRP A  10      -8.575  26.976   5.225  0.00  0.00    +0.001 A 
ATOM     32  CZ3 TRP A  10      -7.515  27.874   5.202  0.00  0.00    +0.000 A 
ATOM     33  CH2 TRP A  10      -7.685  29.178   4.728  0.00  0.00    +0.001 A 
ATOM     34  CZ2 TRP A  10      -8.915  29.637   4.311  0.00  0.00    +0.017 A 
ATOM     35  CE2 TRP A  10      -9.991  28.739   4.341  0.00  0.00    +0.056 A 
ATOM     36  NE1 TRP A  10     -11.319  28.920   4.027  0.00  0.00    -0.352 N 
ATOM     37  HE1 TRP A  10     -11.740  29.799   3.666  0.00  0.00    +0.166 HD
ATOM     38  CD1 TRP A  10     -12.001  27.744   4.270  0.00  0.00    +0.068 A 
ENDBRANCH  28  29
ENDBRANCH  25  28
ENDBRANCH  22  25
ENDBRANCH  20  21
BRANCH  20  39
ATOM     39  CB  LEU A   9     -13.214  23.729  -0.164  0.00  0.00    +0.029 C 
BRANCH  39  40
ATOM     40  CG  LEU A   9     -14.528  23.014  -0.410  0.00  0.00    +0.002 C 
ATOM     41  CD2 LEU A   9     -15.523  23.928  -1.162  0.00  0.00    +0.000 C 
ATOM     42  CD1 LEU A   9     -14.283  21.743  -1.237  0.00  0.00    +0.000 C 
ENDBRANCH  39  40
ENDBRANCH  20  39
ENDBRANCH  18  20
ENDBRANCH  15  16
BRANCH  15  43
ATOM     43  CB  HIS A   8     -13.096  29.467   0.009  0.00  0.00    +0.076 C 
BRANCH  43  44
ATOM     44  CG  HIS A   8     -12.631  30.364  -1.097  0.00  0.00    +0.082 A 
ATOM     45  ND1 HIS A   8     -11.470  31.093  -0.988  0.00  0.00    -0.227 NA
ATOM     46  CE1 HIS A   8     -11.350  31.749  -2.134  0.00  0.00    +0.199 A 
ATOM     47  NE2 HIS A   8     -12.372  31.506  -2.950  0.00  0.00    -0.221 NA
ATOM     48  CD2 HIS A   8     -13.194  30.615  -2.307  0.00  0.00    +0.115 A 
ENDBRANCH  43  44
ENDBRANCH  15  43
ENDBRANCH  12  15
ENDBRANCH  10  11
ENDBRANCH   7  10
ENDBRANCH   5   6
BRANCH   5  49
ATOM     49  CB  ARG A   6     -19.048  33.413  -0.581  0.00  0.00    +0.033 C 
BRANCH  49  50
ATOM     50  CG  ARG A   6     -19.505  34.425   0.467  0.00  0.00    +0.045 C 
BRANCH  50  51
ATOM     51  CD  ARG A   6     -20.690  35.219  -0.028  0.00  0.00    +0.174 C 
BRANCH  51  52
ATOM     52  NE  ARG A   6     -21.912  34.410  -0.029  0.00  0.00    -0.265 N 
ATOM     53  HE  ARG A   6     -21.882  33.485   0.445  0.00  0.00    +0.259 HD
ATOM     54  CZ  ARG A   6     -23.055  34.780  -0.595  0.00  0.00    +0.342 C 
ATOM     55  NH2 ARG A   6     -24.114  33.988  -0.540  0.00  0.00    -0.292 N 
ATOM     56 HH21 ARG A   6     -24.053  33.072  -0.052  0.00  0.00    +0.255 HD
ATOM     57 HH22 ARG A   6     -25.007  34.282  -0.985  0.00  0.00    +0.255 HD
ATOM     58  NH1 ARG A   6     -23.140  35.933  -1.245  0.00  0.00    -0.292 N 
ATOM     59 HH11 ARG A   6     -22.308  36.554  -1.314  0.00  0.00    +0.255 HD
ATOM     60 HH12 ARG A   6     -24.038  36.216  -1.686  0.00  0.00    +0.255 HD
ENDBRANCH  51  52
ENDBRANCH  50  51
ENDBRANCH  49  50
ENDBRANCH   5  49
ENDBRANCH   3   5
BRANCH   1  61
ATOM     61  CA  TYR A   5     -14.338  33.998   0.443  0.00  0.00    +0.153 C 
BRANCH  61  64
ATOM     62  C   SER A   4     -12.790  34.600   2.235  0.00  0.00    +0.243 C 
ATOM     63  O   SER A   4     -13.045  35.800   2.122  0.00  0.00    -0.273 OA
ATOM     64  N   TYR A   5     -13.367  33.672   1.476  0.00  0.00    -0.297 N 
ATOM     65  H   TYR A   5     -13.114  32.675   1.627  0.00  0.00    +0.150 HD
BRANCH  62  66
ATOM     66  CA  SER A   4     -11.725  34.139   3.216  0.00  0.00    +0.178 C 
BRANCH  66  68
ATOM     67  C   HIS A   3     -10.324  35.703   4.410  0.00  0.00    +0.241 C 
ATOM     68  N   SER A   4     -11.519  35.186   4.192  0.00  0.00    -0.295 N 
ATOM     69  H   SER A   4     -12.332  35.540   4.735  0.00  0.00    +0.150 HD
ATOM     70  O   HIS A   3      -9.296  35.260   3.882  0.00  0.00    -0.273 OA
BRANCH  67  71
ATOM     71  CA  HIS A   3     -10.277  36.819   5.451  0.00  0.00    +0.155 C 
BRANCH  71  74
ATOM     72  C   ILE A   2     -10.122  35.670   7.624  0.00  0.00    +0.241 C 
ATOM     73  O   ILE A   2     -11.337  35.540   7.772  0.00  0.00    -0.273 OA
ATOM     74  N   HIS A   3      -9.556  36.284   6.587  0.00  0.00    -0.297 N 
ATOM     75  H   HIS A   3      -8.521  36.387   6.593  0.00  0.00    +0.150 HD
BRANCH  72  76
ATOM     76  CA  ILE A   2      -9.173  35.117   8.636  0.00  0.00    +0.148 C 
BRANCH  76  79
ATOM     77  C   ARG A   1      -8.955  35.764  10.945  0.00  0.00    +0.238 C 
ATOM     78  O   ARG A   1      -7.749  36.009  10.798  0.00  0.00    -0.274 OA
ATOM     79  N   ILE A   2      -9.708  35.289   9.964  0.00  0.00    -0.297 N 
ATOM     80  H   ILE A   2     -10.699  35.037  10.154  0.00  0.00    +0.150 HD
BRANCH  77  81
ATOM     81  CA  ARG A   1      -9.636  35.903  12.316  0.00  0.00    +0.145 C 
BRANCH  81  82
ATOM     82  N   ARG A   1      -8.792  35.225  13.294  0.00  0.00    -0.238 NA
ATOM     83  H   ARG A   1      -8.139  35.794  13.870  0.00  0.00    +0.142 HD
ENDBRANCH  81  82
BRANCH  81  84
ATOM     84  CB  ARG A   1      -9.851  37.375  12.692  0.00  0.00    +0.030 C 
BRANCH  84  85
ATOM     85  CG  ARG A   1     -10.913  38.053  11.839  0.00  0.00    +0.045 C 
BRANCH  85  86
ATOM     86  CD  ARG A   1     -11.442  39.334  12.462  0.00  0.00    +0.174 C 
BRANCH  86  87
ATOM     87  NE  ARG A   1     -10.422  40.382  12.557  0.00  0.00    -0.265 N 
ATOM     88  HE  ARG A   1      -9.843  40.416  13.420  0.00  0.00    +0.259 HD
ATOM     89  CZ  ARG A   1     -10.185  41.292  11.618  0.00  0.00    +0.342 C 
ATOM     90  NH2 ARG A   1      -9.251  42.215  11.803  0.00  0.00    -0.292 N 
ATOM     91 HH21 ARG A   1      -8.701  42.229  12.685  0.00  0.00    +0.255 HD
ATOM     92 HH22 ARG A   1      -9.069  42.925  11.066  0.00  0.00    +0.255 HD
ATOM     93  NH1 ARG A   1     -10.883  41.289  10.488  0.00  0.00    -0.292 N 
ATOM     94 HH11 ARG A   1     -11.620  40.572  10.334  0.00  0.00    +0.255 HD
ATOM     95 HH12 ARG A   1     -10.692  42.004   9.757  0.00  0.00    +0.255 HD
ENDBRANCH  86  87
ENDBRANCH  85  86
ENDBRANCH  84  85
ENDBRANCH  81  84
ENDBRANCH  77  81
ENDBRANCH  76  79
BRANCH  76  96
ATOM     96  CB  ILE A   2      -8.734  33.659   8.306  0.00  0.00    +0.027 C 
ATOM     97  CG2 ILE A   2      -7.569  33.158   9.183  0.00  0.00    +0.002 C 
BRANCH  96  98
ATOM     98  CG1 ILE A   2      -9.911  32.675   8.314  0.00  0.00    +0.002 C 
ATOM     99  CD1 ILE A   2     -10.289  32.283   6.921  0.00  0.00    +0.000 C 
ENDBRANCH  96  98
ENDBRANCH  76  96
ENDBRANCH  72  76
ENDBRANCH  71  74
BRANCH  71 100
ATOM    100  CB  HIS A   3      -9.584  38.070   4.898  0.00  0.00    +0.076 C 
BRANCH 100 101
ATOM    101  CG  HIS A   3      -9.744  39.280   5.766  0.00  0.00    +0.082 A 
ATOM    102  ND1 HIS A   3      -9.242  39.315   7.062  0.00  0.00    -0.227 NA
ATOM    103  CE1 HIS A   3      -9.545  40.513   7.531  0.00  0.00    +0.199 A 
ATOM    104  NE2 HIS A   3     -10.192  41.244   6.622  0.00  0.00    -0.221 NA
ATOM    105  CD2 HIS A   3     -10.327  40.468   5.493  0.00  0.00    +0.115 A 
ENDBRANCH 100 101
ENDBRANCH  71 100
ENDBRANCH  67  71
ENDBRANCH  66  68
BRANCH  66 106
ATOM    106  CB  SER A   4     -12.094  32.828   3.912  0.00  0.00    +0.166 C 
BRANCH 106 107
ATOM    107  OG  SER A   4     -11.908  31.738   3.026  0.00  0.00    -0.380 OA
ATOM    108  H   SER A   4     -10.960  31.701   2.744  0.00  0.00    +0.211 HD
ENDBRANCH 106 107
ENDBRANCH  66 106
ENDBRANCH  62  66
ENDBRANCH  61  64
BRANCH  61 109
ATOM    109  CB  TYR A   5     -13.650  33.989  -0.945  0.00  0.00    +0.055 C 
BRANCH 109 110
ATOM    110  CG  TYR A   5     -12.619  35.088  -1.085  0.00  0.00    -0.020 A 
ATOM    111  CD2 TYR A   5     -11.307  34.908  -0.631  0.00  0.00    -0.001 A 
ATOM    112  CE2 TYR A   5     -10.380  35.948  -0.669  0.00  0.00    +0.036 A 
ATOM    113  CZ  TYR A   5     -10.756  37.182  -1.180  0.00  0.00    +0.134 A 
ATOM    114  CE1 TYR A   5     -12.046  37.379  -1.648  0.00  0.00    +0.036 A 
ATOM    115  CD1 TYR A   5     -12.967  36.334  -1.604  0.00  0.00    -0.001 A 
BRANCH 113 116
ATOM    116  OH  TYR A   5      -9.856  38.213  -1.228  0.00  0.00    -0.506 OA
ATOM    117  HH  TYR A   5      -8.989  37.910  -0.859  0.00  0.00    +0.292 HD
ENDBRANCH 113 116
ENDBRANCH 109 110
ENDBRANCH  61 109
ENDBRANCH   1  61
TORSDOF 43
REMARK  Name = ../refined-set-2016/4bkt/4bkt_pocket.pdb
REMARK  117 active torsions:
REMARK  status: ('A' for Active; 'I' for Inactive)
REMARK    1  A    between atoms: _1  and  _3
REMARK    2  A    between atoms: _3  and  _4
REMARK    3  A    between atoms: _3  and  _6
REMARK    4  A    between atoms: _6  and  _7
REMARK    5  A    between atoms: _9  and  _11
REMARK    6  A    between atoms: _11  and  _12
REMARK    7  A    between atoms: _11  and  _14
REMARK    8  A    between atoms: _17  and  _19
REMARK    9  A    between atoms: _19  and  _20
REMARK   10  A    between atoms: _19  and  _22
REMARK   11  A    between atoms: _22  and  _23
REMARK   12  A    between atoms: _28  and  _30
REMARK   13  A    between atoms: _30  and  _31
REMARK   14  A    between atoms: _30  and  _33
REMARK   15  A    between atoms: _33  and  _34
REMARK   16  A    between atoms: _36  and  _38
REMARK   17  A    between atoms: _38  and  _39
REMARK   18  A    between atoms: _38  and  _41
REMARK   19  A    between atoms: _41  and  _42
REMARK   20  A    between atoms: _42  and  _43
REMARK   21  A    between atoms: _43  and  _44
REMARK   22  A    between atoms: _53  and  _55
REMARK   23  A    between atoms: _55  and  _56
REMARK   24  A    between atoms: _55  and  _58
REMARK   25  A    between atoms: _58  and  _59
REMARK   26  A    between atoms: _59  and  _60
REMARK   27  A    between atoms: _64  and  _65
REMARK   28  A    between atoms: _70  and  _72
REMARK   29  A    between atoms: _72  and  _73
REMARK   30  A    between atoms: _72  and  _75
REMARK   31  A    between atoms: _75  and  _76
REMARK   32  A    between atoms: _78  and  _80
REMARK   33  A    between atoms: _80  and  _81
REMARK   34  A    between atoms: _80  and  _83
REMARK   35  A    between atoms: _86  and  _88
REMARK   36  A    between atoms: _88  and  _89
REMARK   37  A    between atoms: _88  and  _91
REMARK   38  A    between atoms: _91  and  _92
REMARK   39  A    between atoms: _99  and  _100
REMARK   40  A    between atoms: _105  and  _107
REMARK   41  A    between atoms: _107  and  _108
REMARK   42  A    between atoms: _107  and  _110
REMARK   43  A    between atoms: _113  and  _115
REMARK   44  A    between atoms: _115  and  _116
REMARK   45  A    between atoms: _115  and  _118
REMARK   46  A    between atoms: _118  and  _119
REMARK   47  A    between atoms: _129  and  _131
REMARK   48  A    between atoms: _131  and  _132
REMARK   49  A    between atoms: _131  and  _134
REMARK   50  A    between atoms: _134  and  _135
REMARK   51  A    between atoms: _138  and  _140
REMARK   52  A    between atoms: _140  and  _141
REMARK   53  A    between atoms: _140  and  _143
REMARK   54  A    between atoms: _143  and  _144
REMARK   55  A    between atoms: _149  and  _151
REMARK   56  A    between atoms: _151  and  _152
REMARK   57  A    between atoms: _151  and  _154
REMARK   58  A    between atoms: _154  and  _155
REMARK   59  A    between atoms: _161  and  _163
REMARK   60  A    between atoms: _163  and  _164
REMARK   61  A    between atoms: _163  and  _166
REMARK   62  A    between atoms: _166  and  _167
REMARK   63  A    between atoms: _167  and  _168
REMARK   64  A    between atoms: _173  and  _175
REMARK   65  A    between atoms: _175  and  _176
REMARK   66  A    between atoms: _175  and  _178
REMARK   67  A    between atoms: _178  and  _179
REMARK   68  A    between atoms: _184  and  _185
REMARK   69  A    between atoms: _188  and  _189
REMARK   70  A    between atoms: _194  and  _196
REMARK   71  A    between atoms: _196  and  _197
REMARK   72  A    between atoms: _196  and  _199
REMARK   73  A    between atoms: _199  and  _200
REMARK   74  A    between atoms: _200  and  _201
REMARK   75  A    between atoms: _201  and  _202
REMARK   76  A    between atoms: _211  and  _213
REMARK   77  A    between atoms: _213  and  _214
REMARK   78  A    between atoms: _213  and  _216
REMARK   79  A    between atoms: _216  and  _217
REMARK   80  A    between atoms: _220  and  _222
REMARK   81  A    between atoms: _222  and  _223
REMARK   82  A    between atoms: _222  and  _225
REMARK   83  A    between atoms: _225  and  _226
REMARK   84  A    between atoms: _231  and  _233
REMARK   85  A    between atoms: _233  and  _234
REMARK   86  A    between atoms: _233  and  _236
REMARK   87  A    between atoms: _236  and  _237
REMARK   88  A    between atoms: _239  and  _241
REMARK   89  A    between atoms: _241  and  _242
REMARK   90  A    between atoms: _241  and  _244
REMARK   91  A    between atoms: _244  and  _245
REMARK   92  A    between atoms: _250  and  _251
REMARK   93  A    between atoms: _253  and  _255
REMARK   94  A    between atoms: _255  and  _256
REMARK   95  A    between atoms: _255  and  _258
REMARK   96  A    between atoms: _258  and  _259
REMARK   97  A    between atoms: _259  and  _260
REMARK   98  A    between atoms: _260  and  _261
REMARK   99  A    between atoms: _270  and  _272
REMARK  100  A    between atoms: _272  and  _273
REMARK  101  A    between atoms: _275  and  _277
REMARK  102  A    between atoms: _277  and  _278
REMARK  103  A    between atoms: _277  and  _280
REMARK  104  A    between atoms: _280  and  _281
REMARK  105  A    between atoms: _286  and  _288
REMARK  106  A    between atoms: _288  and  _289
REMARK  107  A    between atoms: _288  and  _291
REMARK  108  A    between atoms: _291  and  _292
REMARK  109  A    between atoms: _295  and  _297
REMARK  110  A    between atoms: _297  and  _298
REMARK  111  A    between atoms: _297  and  _300
REMARK  112  A    between atoms: _300  and  _301
REMARK  113  A    between atoms: _311  and  _313
REMARK  114  A    between atoms: _313  and  _314
REMARK  115  A    between atoms: _313  and  _316
REMARK  116  A    between atoms: _316  and  _317
REMARK  117  A    between atoms: _324  and  _325
REMARK                            x       y       z     vdW  Elec       q    Type
REMARK                         _______ _______ _______ _____ _____    ______ ____
ROOT
ATOM      1  CB  PHE A   1     -15.073  24.759   7.228  0.00  0.00    +0.051 C 
ENDROOT
BRANCH   1   2
ATOM      2  CG  PHE A   1     -15.503  26.179   7.511  0.00  0.00    -0.020 A 
ATOM      3  CD2 PHE A   1     -16.716  26.445   8.134  0.00  0.00    -0.004 A 
ATOM      4  CE2 PHE A   1     -17.133  27.759   8.354  0.00  0.00    -0.000 A 
ATOM      5  CZ  PHE A   1     -16.328  28.810   7.972  0.00  0.00    -0.000 A 
ATOM      6  CE1 PHE A   1     -15.130  28.562   7.343  0.00  0.00    -0.000 A 
ATOM      7  CD1 PHE A   1     -14.710  27.250   7.128  0.00  0.00    -0.004 A 
ENDBRANCH   1   2
BRANCH   1   8
ATOM      8  CA  PHE A   1     -15.926  24.067   6.145  0.00  0.00    +0.137 C 
BRANCH   8   9
ATOM      9  N   PHE A   1     -15.392  22.767   5.813  0.00  0.00    -0.239 NA
ATOM     10  H   PHE A   1     -14.392  22.708   5.532  0.00  0.00    +0.142 HD
ENDBRANCH   8   9
BRANCH   8  11
ATOM     11  C   PHE A   1     -15.985  24.910   4.877  0.00  0.00    +0.224 C 
ATOM     12  O   PHE A   1     -14.977  25.080   4.173  0.00  0.00    -0.287 OA
ENDBRANCH   8  11
ENDBRANCH   1   8
TORSDOF 4
REMARK  Name = ../refined-set-2016/4bkt/4bkt_pocket.pdb
REMARK  117 active torsions:
REMARK  status: ('A' for Active; 'I' for Inactive)
REMARK    1  A    between atoms: _1  and  _3
REMARK    2  A    between atoms: _3  and  _4
REMARK    3  A    between atoms: _3  and  _6
REMARK    4  A    between atoms: _6  and  _7
REMARK    5  A    between atoms: _9  and  _11
REMARK    6  A    between atoms: _11  and  _12
REMARK    7  A    between atoms: _11  and  _14
REMARK    8  A    between atoms: _17  and  _19
REMARK    9  A    between atoms: _19  and  _20
REMARK   10  A    between atoms: _19  and  _22
REMARK   11  A    between atoms: _22  and  _23
REMARK   12  A    between atoms: _28  and  _30
REMARK   13  A    between atoms: _30  and  _31
REMARK   14  A    between atoms: _30  and  _33
REMARK   15  A    between atoms: _33  and  _34
REMARK   16  A    between atoms: _36  and  _38
REMARK   17  A    between atoms: _38  and  _39
REMARK   18  A    between atoms: _38  and  _41
REMARK   19  A    between atoms: _41  and  _42
REMARK   20  A    between atoms: _42  and  _43
REMARK   21  A    between atoms: _43  and  _44
REMARK   22  A    between atoms: _53  and  _55
REMARK   23  A    between atoms: _55  and  _56
REMARK   24  A    between atoms: _55  and  _58
REMARK   25  A    between atoms: _58  and  _59
REMARK   26  A    between atoms: _59  and  _60
REMARK   27  A    between atoms: _64  and  _65
REMARK   28  A    between atoms: _70  and  _72
REMARK   29  A    between atoms: _72  and  _73
REMARK   30  A    between atoms: _72  and  _75
REMARK   31  A    between atoms: _75  and  _76
REMARK   32  A    between atoms: _78  and  _80
REMARK   33  A    between atoms: _80  and  _81
REMARK   34  A    between atoms: _80  and  _83
REMARK   35  A    between atoms: _86  and  _88
REMARK   36  A    between atoms: _88  and  _89
REMARK   37  A    between atoms: _88  and  _91
REMARK   38  A    between atoms: _91  and  _92
REMARK   39  A    between atoms: _99  and  _100
REMARK   40  A    between atoms: _105  and  _107
REMARK   41  A    between atoms: _107  and  _108
REMARK   42  A    between atoms: _107  and  _110
REMARK   43  A    between atoms: _113  and  _115
REMARK   44  A    between atoms: _115  and  _116
REMARK   45  A    between atoms: _115  and  _118
REMARK   46  A    between atoms: _118  and  _119
REMARK   47  A    between atoms: _129  and  _131
REMARK   48  A    between atoms: _131  and  _132
REMARK   49  A    between atoms: _131  and  _134
REMARK   50  A    between atoms: _134  and  _135
REMARK   51  A    between atoms: _138  and  _140
REMARK   52  A    between atoms: _140  and  _141
REMARK   53  A    between atoms: _140  and  _143
REMARK   54  A    between atoms: _143  and  _144
REMARK   55  A    between atoms: _149  and  _151
REMARK   56  A    between atoms: _151  and  _152
REMARK   57  A    between atoms: _151  and  _154
REMARK   58  A    between atoms: _154  and  _155
REMARK   59  A    between atoms: _161  and  _163
REMARK   60  A    between atoms: _163  and  _164
REMARK   61  A    between atoms: _163  and  _166
REMARK   62  A    between atoms: _166  and  _167
REMARK   63  A    between atoms: _167  and  _168
REMARK   64  A    between atoms: _173  and  _175
REMARK   65  A    between atoms: _175  and  _176
REMARK   66  A    between atoms: _175  and  _178
REMARK   67  A    between atoms: _178  and  _179
REMARK   68  A    between atoms: _184  and  _185
REMARK   69  A    between atoms: _188  and  _189
REMARK   70  A    between atoms: _194  and  _196
REMARK   71  A    between atoms: _196  and  _197
REMARK   72  A    between atoms: _196  and  _199
REMARK   73  A    between atoms: _199  and  _200
REMARK   74  A    between atoms: _200  and  _201
REMARK   75  A    between atoms: _201  and  _202
REMARK   76  A    between atoms: _211  and  _213
REMARK   77  A    between atoms: _213  and  _214
REMARK   78  A    between atoms: _213  and  _216
REMARK   79  A    between atoms: _216  and  _217
REMARK   80  A    between atoms: _220  and  _222
REMARK   81  A    between atoms: _222  and  _223
REMARK   82  A    between atoms: _222  and  _225
REMARK   83  A    between atoms: _225  and  _226
REMARK   84  A    between atoms: _231  and  _233
REMARK   85  A    between atoms: _233  and  _234
REMARK   86  A    between atoms: _233  and  _236
REMARK   87  A    between atoms: _236  and  _237
REMARK   88  A    between atoms: _239  and  _241
REMARK   89  A    between atoms: _241  and  _242
REMARK   90  A    between atoms: _241  and  _244
REMARK   91  A    between atoms: _244  and  _245
REMARK   92  A    between atoms: _250  and  _251
REMARK   93  A    between atoms: _253  and  _255
REMARK   94  A    between atoms: _255  and  _256
REMARK   95  A    between atoms: _255  and  _258
REMARK   96  A    between atoms: _258  and  _259
REMARK   97  A    between atoms: _259  and  _260
REMARK   98  A    between atoms: _260  and  _261
REMARK   99  A    between atoms: _270  and  _272
REMARK  100  A    between atoms: _272  and  _273
REMARK  101  A    between atoms: _275  and  _277
REMARK  102  A    between atoms: _277  and  _278
REMARK  103  A    between atoms: _277  and  _280
REMARK  104  A    between atoms: _280  and  _281
REMARK  105  A    between atoms: _286  and  _288
REMARK  106  A    between atoms: _288  and  _289
REMARK  107  A    between atoms: _288  and  _291
REMARK  108  A    between atoms: _291  and  _292
REMARK  109  A    between atoms: _295  and  _297
REMARK  110  A    between atoms: _297  and  _298
REMARK  111  A    between atoms: _297  and  _300
REMARK  112  A    between atoms: _300  and  _301
REMARK  113  A    between atoms: _311  and  _313
REMARK  114  A    between atoms: _313  and  _314
REMARK  115  A    between atoms: _313  and  _316
REMARK  116  A    between atoms: _316  and  _317
REMARK  117  A    between atoms: _324  and  _325
REMARK                            x       y       z     vdW  Elec       q    Type
REMARK                         _______ _______ _______ _____ _____    ______ ____
ROOT
ATOM      1  N   PRO A   1     -17.014  28.782   3.908  0.00  0.00    -0.212 NA
ATOM      2  CA  PRO A   1     -17.461  30.123   4.340  0.00  0.00    +0.137 C 
ATOM      3  CB  PRO A   1     -16.273  31.040   3.979  0.00  0.00    +0.027 C 
ATOM      4  CG  PRO A   1     -15.114  30.158   3.932  0.00  0.00    +0.021 C 
ATOM      5  CD  PRO A   1     -15.606  28.814   3.462  0.00  0.00    +0.089 C 
ENDROOT
BRANCH   2   6
ATOM      6  C   PRO A   1     -18.720  30.540   3.596  0.00  0.00    +0.224 C 
ATOM      7  O   PRO A   1     -18.810  30.386   2.374  0.00  0.00    -0.287 OA
ENDBRANCH   2   6
TORSDOF 1
REMARK  Name = ../refined-set-2016/4bkt/4bkt_pocket.pdb
REMARK  117 active torsions:
REMARK  status: ('A' for Active; 'I' for Inactive)
REMARK    1  A    between atoms: _1  and  _3
REMARK    2  A    between atoms: _3  and  _4
REMARK    3  A    between atoms: _3  and  _6
REMARK    4  A    between atoms: _6  and  _7
REMARK    5  A    between atoms: _9  and  _11
REMARK    6  A    between atoms: _11  and  _12
REMARK    7  A    between atoms: _11  and  _14
REMARK    8  A    between atoms: _17  and  _19
REMARK    9  A    between atoms: _19  and  _20
REMARK   10  A    between atoms: _19  and  _22
REMARK   11  A    between atoms: _22  and  _23
REMARK   12  A    between atoms: _28  and  _30
REMARK   13  A    between atoms: _30  and  _31
REMARK   14  A    between atoms: _30  and  _33
REMARK   15  A    between atoms: _33  and  _34
REMARK   16  A    between atoms: _36  and  _38
REMARK   17  A    between atoms: _38  and  _39
REMARK   18  A    between atoms: _38  and  _41
REMARK   19  A    between atoms: _41  and  _42
REMARK   20  A    between atoms: _42  and  _43
REMARK   21  A    between atoms: _43  and  _44
REMARK   22  A    between atoms: _53  and  _55
REMARK   23  A    between atoms: _55  and  _56
REMARK   24  A    between atoms: _55  and  _58
REMARK   25  A    between atoms: _58  and  _59
REMARK   26  A    between atoms: _59  and  _60
REMARK   27  A    between atoms: _64  and  _65
REMARK   28  A    between atoms: _70  and  _72
REMARK   29  A    between atoms: _72  and  _73
REMARK   30  A    between atoms: _72  and  _75
REMARK   31  A    between atoms: _75  and  _76
REMARK   32  A    between atoms: _78  and  _80
REMARK   33  A    between atoms: _80  and  _81
REMARK   34  A    between atoms: _80  and  _83
REMARK   35  A    between atoms: _86  and  _88
REMARK   36  A    between atoms: _88  and  _89
REMARK   37  A    between atoms: _88  and  _91
REMARK   38  A    between atoms: _91  and  _92
REMARK   39  A    between atoms: _99  and  _100
REMARK   40  A    between atoms: _105  and  _107
REMARK   41  A    between atoms: _107  and  _108
REMARK   42  A    between atoms: _107  and  _110
REMARK   43  A    between atoms: _113  and  _115
REMARK   44  A    between atoms: _115  and  _116
REMARK   45  A    between atoms: _115  and  _118
REMARK   46  A    between atoms: _118  and  _119
REMARK   47  A    between atoms: _129  and  _131
REMARK   48  A    between atoms: _131  and  _132
REMARK   49  A    between atoms: _131  and  _134
REMARK   50  A    between atoms: _134  and  _135
REMARK   51  A    between atoms: _138  and  _140
REMARK   52  A    between atoms: _140  and  _141
REMARK   53  A    between atoms: _140  and  _143
REMARK   54  A    between atoms: _143  and  _144
REMARK   55  A    between atoms: _149  and  _151
REMARK   56  A    between atoms: _151  and  _152
REMARK   57  A    between atoms: _151  and  _154
REMARK   58  A    between atoms: _154  and  _155
REMARK   59  A    between atoms: _161  and  _163
REMARK   60  A    between atoms: _163  and  _164
REMARK   61  A    between atoms: _163  and  _166
REMARK   62  A    between atoms: _166  and  _167
REMARK   63  A    between atoms: _167  and  _168
REMARK   64  A    between atoms: _173  and  _175
REMARK   65  A    between atoms: _175  and  _176
REMARK   66  A    between atoms: _175  and  _178
REMARK   67  A    between atoms: _178  and  _179
REMARK   68  A    between atoms: _184  and  _185
REMARK   69  A    between atoms: _188  and  _189
REMARK   70  A    between atoms: _194  and  _196
REMARK   71  A    between atoms: _196  and  _197
REMARK   72  A    between atoms: _196  and  _199
REMARK   73  A    between atoms: _199  and  _200
REMARK   74  A    between atoms: _200  and  _201
REMARK   75  A    between atoms: _201  and  _202
REMARK   76  A    between atoms: _211  and  _213
REMARK   77  A    between atoms: _213  and  _214
REMARK   78  A    between atoms: _213  and  _216
REMARK   79  A    between atoms: _216  and  _217
REMARK   80  A    between atoms: _220  and  _222
REMARK   81  A    between atoms: _222  and  _223
REMARK   82  A    between atoms: _222  and  _225
REMARK   83  A    between atoms: _225  and  _226
REMARK   84  A    between atoms: _231  and  _233
REMARK   85  A    between atoms: _233  and  _234
REMARK   86  A    between atoms: _233  and  _236
REMARK   87  A    between atoms: _236  and  _237
REMARK   88  A    between atoms: _239  and  _241
REMARK   89  A    between atoms: _241  and  _242
REMARK   90  A    between atoms: _241  and  _244
REMARK   91  A    between atoms: _244  and  _245
REMARK   92  A    between atoms: _250  and  _251
REMARK   93  A    between atoms: _253  and  _255
REMARK   94  A    between atoms: _255  and  _256
REMARK   95  A    between atoms: _255  and  _258
REMARK   96  A    between atoms: _258  and  _259
REMARK   97  A    between atoms: _259  and  _260
REMARK   98  A    between atoms: _260  and  _261
REMARK   99  A    between atoms: _270  and  _272
REMARK  100  A    between atoms: _272  and  _273
REMARK  101  A    between atoms: _275  and  _277
REMARK  102  A    between atoms: _277  and  _278
REMARK  103  A    between atoms: _277  and  _280
REMARK  104  A    between atoms: _280  and  _281
REMARK  105  A    between atoms: _286  and  _288
REMARK  106  A    between atoms: _288  and  _289
REMARK  107  A    between atoms: _288  and  _291
REMARK  108  A    between atoms: _291  and  _292
REMARK  109  A    between atoms: _295  and  _297
REMARK  110  A    between atoms: _297  and  _298
REMARK  111  A    between atoms: _297  and  _300
REMARK  112  A    between atoms: _300  and  _301
REMARK  113  A    between atoms: _311  and  _313
REMARK  114  A    between atoms: _313  and  _314
REMARK  115  A    between atoms: _313  and  _316
REMARK  116  A    between atoms: _316  and  _317
REMARK  117  A    between atoms: _324  and  _325
REMARK                            x       y       z     vdW  Elec       q    Type
REMARK                         _______ _______ _______ _____ _____    ______ ____
ROOT
ATOM      1  O   HOH     1     -12.847  33.691  -4.985  0.00  0.00    +0.000 OA
ENDROOT
TORSDOF 0
REMARK  Name = ../refined-set-2016/4bkt/4bkt_pocket.pdb
REMARK  117 active torsions:
REMARK  status: ('A' for Active; 'I' for Inactive)
REMARK    1  A    between atoms: _1  and  _3
REMARK    2  A    between atoms: _3  and  _4
REMARK    3  A    between atoms: _3  and  _6
REMARK    4  A    between atoms: _6  and  _7
REMARK    5  A    between atoms: _9  and  _11
REMARK    6  A    between atoms: _11  and  _12
REMARK    7  A    between atoms: _11  and  _14
REMARK    8  A    between atoms: _17  and  _19
REMARK    9  A    between atoms: _19  and  _20
REMARK   10  A    between atoms: _19  and  _22
REMARK   11  A    between atoms: _22  and  _23
REMARK   12  A    between atoms: _28  and  _30
REMARK   13  A    between atoms: _30  and  _31
REMARK   14  A    between atoms: _30  and  _33
REMARK   15  A    between atoms: _33  and  _34
REMARK   16  A    between atoms: _36  and  _38
REMARK   17  A    between atoms: _38  and  _39
REMARK   18  A    between atoms: _38  and  _41
REMARK   19  A    between atoms: _41  and  _42
REMARK   20  A    between atoms: _42  and  _43
REMARK   21  A    between atoms: _43  and  _44
REMARK   22  A    between atoms: _53  and  _55
REMARK   23  A    between atoms: _55  and  _56
REMARK   24  A    between atoms: _55  and  _58
REMARK   25  A    between atoms: _58  and  _59
REMARK   26  A    between atoms: _59  and  _60
REMARK   27  A    between atoms: _64  and  _65
REMARK   28  A    between atoms: _70  and  _72
REMARK   29  A    between atoms: _72  and  _73
REMARK   30  A    between atoms: _72  and  _75
REMARK   31  A    between atoms: _75  and  _76
REMARK   32  A    between atoms: _78  and  _80
REMARK   33  A    between atoms: _80  and  _81
REMARK   34  A    between atoms: _80  and  _83
REMARK   35  A    between atoms: _86  and  _88
REMARK   36  A    between atoms: _88  and  _89
REMARK   37  A    between atoms: _88  and  _91
REMARK   38  A    between atoms: _91  and  _92
REMARK   39  A    between atoms: _99  and  _100
REMARK   40  A    between atoms: _105  and  _107
REMARK   41  A    between atoms: _107  and  _108
REMARK   42  A    between atoms: _107  and  _110
REMARK   43  A    between atoms: _113  and  _115
REMARK   44  A    between atoms: _115  and  _116
REMARK   45  A    between atoms: _115  and  _118
REMARK   46  A    between atoms: _118  and  _119
REMARK   47  A    between atoms: _129  and  _131
REMARK   48  A    between atoms: _131  and  _132
REMARK   49  A    between atoms: _131  and  _134
REMARK   50  A    between atoms: _134  and  _135
REMARK   51  A    between atoms: _138  and  _140
REMARK   52  A    between atoms: _140  and  _141
REMARK   53  A    between atoms: _140  and  _143
REMARK   54  A    between atoms: _143  and  _144
REMARK   55  A    between atoms: _149  and  _151
REMARK   56  A    between atoms: _151  and  _152
REMARK   57  A    between atoms: _151  and  _154
REMARK   58  A    between atoms: _154  and  _155
REMARK   59  A    between atoms: _161  and  _163
REMARK   60  A    between atoms: _163  and  _164
REMARK   61  A    between atoms: _163  and  _166
REMARK   62  A    between atoms: _166  and  _167
REMARK   63  A    between atoms: _167  and  _168
REMARK   64  A    between atoms: _173  and  _175
REMARK   65  A    between atoms: _175  and  _176
REMARK   66  A    between atoms: _175  and  _178
REMARK   67  A    between atoms: _178  and  _179
REMARK   68  A    between atoms: _184  and  _185
REMARK   69  A    between atoms: _188  and  _189
REMARK   70  A    between atoms: _194  and  _196
REMARK   71  A    between atoms: _196  and  _197
REMARK   72  A    between atoms: _196  and  _199
REMARK   73  A    between atoms: _199  and  _200
REMARK   74  A    between atoms: _200  and  _201
REMARK   75  A    between atoms: _201  and  _202
REMARK   76  A    between atoms: _211  and  _213
REMARK   77  A    between atoms: _213  and  _214
REMARK   78  A    between atoms: _213  and  _216
REMARK   79  A    between atoms: _216  and  _217
REMARK   80  A    between atoms: _220  and  _222
REMARK   81  A    between atoms: _222  and  _223
REMARK   82  A    between atoms: _222  and  _225
REMARK   83  A    between atoms: _225  and  _226
REMARK   84  A    between atoms: _231  and  _233
REMARK   85  A    between atoms: _233  and  _234
REMARK   86  A    between atoms: _233  and  _236
REMARK   87  A    between atoms: _236  and  _237
REMARK   88  A    between atoms: _239  and  _241
REMARK   89  A    between atoms: _241  and  _242
REMARK   90  A    between atoms: _241  and  _244
REMARK   91  A    between atoms: _244  and  _245
REMARK   92  A    between atoms: _250  and  _251
REMARK   93  A    between atoms: _253  and  _255
REMARK   94  A    between atoms: _255  and  _256
REMARK   95  A    between atoms: _255  and  _258
REMARK   96  A    between atoms: _258  and  _259
REMARK   97  A    between atoms: _259  and  _260
REMARK   98  A    between atoms: _260  and  _261
REMARK   99  A    between atoms: _270  and  _272
REMARK  100  A    between atoms: _272  and  _273
REMARK  101  A    between atoms: _275  and  _277
REMARK  102  A    between atoms: _277  and  _278
REMARK  103  A    between atoms: _277  and  _280
REMARK  104  A    between atoms: _280  and  _281
REMARK  105  A    between atoms: _286  and  _288
REMARK  106  A    between atoms: _288  and  _289
REMARK  107  A    between atoms: _288  and  _291
REMARK  108  A    between atoms: _291  and  _292
REMARK  109  A    between atoms: _295  and  _297
REMARK  110  A    between atoms: _297  and  _298
REMARK  111  A    between atoms: _297  and  _300
REMARK  112  A    between atoms: _300  and  _301
REMARK  113  A    between atoms: _311  and  _313
REMARK  114  A    between atoms: _313  and  _314
REMARK  115  A    between atoms: _313  and  _316
REMARK  116  A    between atoms: _316  and  _317
REMARK  117  A    between atoms: _324  and  _325
REMARK                            x       y       z     vdW  Elec       q    Type
REMARK                         _______ _______ _______ _____ _____    ______ ____
ROOT
ATOM      1  O   HOH     1      -5.748  28.240  -7.030  0.00  0.00    +0.000 OA
ENDROOT
TORSDOF 0
REMARK  Name = ../refined-set-2016/4bkt/4bkt_pocket.pdb
REMARK  117 active torsions:
REMARK  status: ('A' for Active; 'I' for Inactive)
REMARK    1  A    between atoms: _1  and  _3
REMARK    2  A    between atoms: _3  and  _4
REMARK    3  A    between atoms: _3  and  _6
REMARK    4  A    between atoms: _6  and  _7
REMARK    5  A    between atoms: _9  and  _11
REMARK    6  A    between atoms: _11  and  _12
REMARK    7  A    between atoms: _11  and  _14
REMARK    8  A    between atoms: _17  and  _19
REMARK    9  A    between atoms: _19  and  _20
REMARK   10  A    between atoms: _19  and  _22
REMARK   11  A    between atoms: _22  and  _23
REMARK   12  A    between atoms: _28  and  _30
REMARK   13  A    between atoms: _30  and  _31
REMARK   14  A    between atoms: _30  and  _33
REMARK   15  A    between atoms: _33  and  _34
REMARK   16  A    between atoms: _36  and  _38
REMARK   17  A    between atoms: _38  and  _39
REMARK   18  A    between atoms: _38  and  _41
REMARK   19  A    between atoms: _41  and  _42
REMARK   20  A    between atoms: _42  and  _43
REMARK   21  A    between atoms: _43  and  _44
REMARK   22  A    between atoms: _53  and  _55
REMARK   23  A    between atoms: _55  and  _56
REMARK   24  A    between atoms: _55  and  _58
REMARK   25  A    between atoms: _58  and  _59
REMARK   26  A    between atoms: _59  and  _60
REMARK   27  A    between atoms: _64  and  _65
REMARK   28  A    between atoms: _70  and  _72
REMARK   29  A    between atoms: _72  and  _73
REMARK   30  A    between atoms: _72  and  _75
REMARK   31  A    between atoms: _75  and  _76
REMARK   32  A    between atoms: _78  and  _80
REMARK   33  A    between atoms: _80  and  _81
REMARK   34  A    between atoms: _80  and  _83
REMARK   35  A    between atoms: _86  and  _88
REMARK   36  A    between atoms: _88  and  _89
REMARK   37  A    between atoms: _88  and  _91
REMARK   38  A    between atoms: _91  and  _92
REMARK   39  A    between atoms: _99  and  _100
REMARK   40  A    between atoms: _105  and  _107
REMARK   41  A    between atoms: _107  and  _108
REMARK   42  A    between atoms: _107  and  _110
REMARK   43  A    between atoms: _113  and  _115
REMARK   44  A    between atoms: _115  and  _116
REMARK   45  A    between atoms: _115  and  _118
REMARK   46  A    between atoms: _118  and  _119
REMARK   47  A    between atoms: _129  and  _131
REMARK   48  A    between atoms: _131  and  _132
REMARK   49  A    between atoms: _131  and  _134
REMARK   50  A    between atoms: _134  and  _135
REMARK   51  A    between atoms: _138  and  _140
REMARK   52  A    between atoms: _140  and  _141
REMARK   53  A    between atoms: _140  and  _143
REMARK   54  A    between atoms: _143  and  _144
REMARK   55  A    between atoms: _149  and  _151
REMARK   56  A    between atoms: _151  and  _152
REMARK   57  A    between atoms: _151  and  _154
REMARK   58  A    between atoms: _154  and  _155
REMARK   59  A    between atoms: _161  and  _163
REMARK   60  A    between atoms: _163  and  _164
REMARK   61  A    between atoms: _163  and  _166
REMARK   62  A    between atoms: _166  and  _167
REMARK   63  A    between atoms: _167  and  _168
REMARK   64  A    between atoms: _173  and  _175
REMARK   65  A    between atoms: _175  and  _176
REMARK   66  A    between atoms: _175  and  _178
REMARK   67  A    between atoms: _178  and  _179
REMARK   68  A    between atoms: _184  and  _185
REMARK   69  A    between atoms: _188  and  _189
REMARK   70  A    between atoms: _194  and  _196
REMARK   71  A    between atoms: _196  and  _197
REMARK   72  A    between atoms: _196  and  _199
REMARK   73  A    between atoms: _199  and  _200
REMARK   74  A    between atoms: _200  and  _201
REMARK   75  A    between atoms: _201  and  _202
REMARK   76  A    between atoms: _211  and  _213
REMARK   77  A    between atoms: _213  and  _214
REMARK   78  A    between atoms: _213  and  _216
REMARK   79  A    between atoms: _216  and  _217
REMARK   80  A    between atoms: _220  and  _222
REMARK   81  A    between atoms: _222  and  _223
REMARK   82  A    between atoms: _222  and  _225
REMARK   83  A    between atoms: _225  and  _226
REMARK   84  A    between atoms: _231  and  _233
REMARK   85  A    between atoms: _233  and  _234
REMARK   86  A    between atoms: _233  and  _236
REMARK   87  A    between atoms: _236  and  _237
REMARK   88  A    between atoms: _239  and  _241
REMARK   89  A    between atoms: _241  and  _242
REMARK   90  A    between atoms: _241  and  _244
REMARK   91  A    between atoms: _244  and  _245
REMARK   92  A    between atoms: _250  and  _251
REMARK   93  A    between atoms: _253  and  _255
REMARK   94  A    between atoms: _255  and  _256
REMARK   95  A    between atoms: _255  and  _258
REMARK   96  A    between atoms: _258  and  _259
REMARK   97  A    between atoms: _259  and  _260
REMARK   98  A    between atoms: _260  and  _261
REMARK   99  A    between atoms: _270  and  _272
REMARK  100  A    between atoms: _272  and  _273
REMARK  101  A    between atoms: _275  and  _277
REMARK  102  A    between atoms: _277  and  _278
REMARK  103  A    between atoms: _277  and  _280
REMARK  104  A    between atoms: _280  and  _281
REMARK  105  A    between atoms: _286  and  _288
REMARK  106  A    between atoms: _288  and  _289
REMARK  107  A    between atoms: _288  and  _291
REMARK  108  A    between atoms: _291  and  _292
REMARK  109  A    between atoms: _295  and  _297
REMARK  110  A    between atoms: _297  and  _298
REMARK  111  A    between atoms: _297  and  _300
REMARK  112  A    between atoms: _300  and  _301
REMARK  113  A    between atoms: _311  and  _313
REMARK  114  A    between atoms: _313  and  _314
REMARK  115  A    between atoms: _313  and  _316
REMARK  116  A    between atoms: _316  and  _317
REMARK  117  A    between atoms: _324  and  _325
REMARK                            x       y       z     vdW  Elec       q    Type
REMARK                         _______ _______ _______ _____ _____    ______ ____
ROOT
ATOM      1  O   HOH     1     -11.643  38.275   2.122  0.00  0.00    +0.000 OA
ENDROOT
TORSDOF 0
