REMARK  Name = ../refined-set-2016/4zhm/4zhm_pocket.pdb
REMARK  221 active torsions:
REMARK  status: ('A' for Active; 'I' for Inactive)
REMARK    1  A    between atoms: _1  and  _3
REMARK    2  A    between atoms: _3  and  _4
REMARK    3  A    between atoms: _3  and  _6
REMARK    4  A    between atoms: _6  and  _7
REMARK    5  A    between atoms: _10  and  _12
REMARK    6  A    between atoms: _12  and  _13
REMARK    7  A    between atoms: _12  and  _15
REMARK    8  A    between atoms: _15  and  _16
REMARK    9  A    between atoms: _16  and  _17
REMARK   10  A    between atoms: _17  and  _18
REMARK   11  A    between atoms: _27  and  _29
REMARK   12  A    between atoms: _29  and  _30
REMARK   13  A    between atoms: _29  and  _32
REMARK   14  A    between atoms: _32  and  _33
REMARK   15  A    between atoms: _38  and  _40
REMARK   16  A    between atoms: _40  and  _41
REMARK   17  A    between atoms: _40  and  _43
REMARK   18  A    between atoms: _43  and  _44
REMARK   19  A    between atoms: _47  and  _49
REMARK   20  A    between atoms: _49  and  _50
REMARK   21  A    between atoms: _49  and  _52
REMARK   22  A    between atoms: _52  and  _53
REMARK   23  A    between atoms: _58  and  _59
REMARK   24  A    between atoms: _61  and  _63
REMARK   25  A    between atoms: _63  and  _64
REMARK   26  A    between atoms: _63  and  _66
REMARK   27  A    between atoms: _69  and  _71
REMARK   28  A    between atoms: _71  and  _72
REMARK   29  A    between atoms: _71  and  _74
REMARK   30  A    between atoms: _74  and  _75
REMARK   31  A    between atoms: _75  and  _113
REMARK   32  A    between atoms: _76  and  _78
REMARK   33  A    between atoms: _78  and  _79
REMARK   34  A    between atoms: _81  and  _83
REMARK   35  A    between atoms: _83  and  _84
REMARK   36  A    between atoms: _87  and  _89
REMARK   37  A    between atoms: _89  and  _90
REMARK   38  A    between atoms: _89  and  _92
REMARK   39  A    between atoms: _92  and  _93
REMARK   40  A    between atoms: _96  and  _98
REMARK   41  A    between atoms: _98  and  _99
REMARK   42  A    between atoms: _98  and  _101
REMARK   43  A    between atoms: _101  and  _102
REMARK   44  A    between atoms: _107  and  _109
REMARK   45  A    between atoms: _109  and  _110
REMARK   46  A    between atoms: _109  and  _112
REMARK   47  A    between atoms: _112  and  _113
REMARK   48  A    between atoms: _114  and  _116
REMARK   49  A    between atoms: _116  and  _117
REMARK   50  A    between atoms: _116  and  _119
REMARK   51  A    between atoms: _119  and  _120
REMARK   52  A    between atoms: _126  and  _128
REMARK   53  A    between atoms: _128  and  _129
REMARK   54  A    between atoms: _128  and  _131
REMARK   55  A    between atoms: _131  and  _132
REMARK   56  A    between atoms: _135  and  _137
REMARK   57  A    between atoms: _137  and  _138
REMARK   58  A    between atoms: _137  and  _140
REMARK   59  A    between atoms: _140  and  _141
REMARK   60  A    between atoms: _144  and  _146
REMARK   61  A    between atoms: _146  and  _147
REMARK   62  A    between atoms: _146  and  _149
REMARK   63  A    between atoms: _149  and  _150
REMARK   64  A    between atoms: _155  and  _156
REMARK   65  A    between atoms: _158  and  _160
REMARK   66  A    between atoms: _160  and  _161
REMARK   67  A    between atoms: _160  and  _163
REMARK   68  A    between atoms: _163  and  _164
REMARK   69  A    between atoms: _169  and  _170
REMARK   70  A    between atoms: _172  and  _174
REMARK   71  A    between atoms: _174  and  _175
REMARK   72  A    between atoms: _174  and  _177
REMARK   73  A    between atoms: _177  and  _178
REMARK   74  A    between atoms: _181  and  _183
REMARK   75  A    between atoms: _183  and  _184
REMARK   76  A    between atoms: _183  and  _186
REMARK   77  A    between atoms: _186  and  _187
REMARK   78  A    between atoms: _192  and  _193
REMARK   79  A    between atoms: _195  and  _197
REMARK   80  A    between atoms: _197  and  _198
REMARK   81  A    between atoms: _197  and  _200
REMARK   82  A    between atoms: _200  and  _201
REMARK   83  A    between atoms: _203  and  _205
REMARK   84  A    between atoms: _205  and  _206
REMARK   85  A    between atoms: _209  and  _211
REMARK   86  A    between atoms: _211  and  _212
REMARK   87  A    between atoms: _211  and  _214
REMARK   88  A    between atoms: _214  and  _215
REMARK   89  A    between atoms: _218  and  _220
REMARK   90  A    between atoms: _220  and  _221
REMARK   91  A    between atoms: _220  and  _223
REMARK   92  A    between atoms: _223  and  _224
REMARK   93  A    between atoms: _227  and  _229
REMARK   94  A    between atoms: _229  and  _230
REMARK   95  A    between atoms: _229  and  _232
REMARK   96  A    between atoms: _232  and  _233
REMARK   97  A    between atoms: _236  and  _238
REMARK   98  A    between atoms: _238  and  _239
REMARK   99  A    between atoms: _242  and  _244
REMARK  100  A    between atoms: _244  and  _245
REMARK  101  A    between atoms: _244  and  _247
REMARK  102  A    between atoms: _247  and  _248
REMARK  103  A    between atoms: _253  and  _254
REMARK  104  A    between atoms: _256  and  _258
REMARK  105  A    between atoms: _258  and  _259
REMARK  106  A    between atoms: _258  and  _261
REMARK  107  A    between atoms: _261  and  _262
REMARK  108  A    between atoms: _267  and  _269
REMARK  109  A    between atoms: _269  and  _270
REMARK  110  A    between atoms: _269  and  _272
REMARK  111  A    between atoms: _272  and  _273
REMARK  112  A    between atoms: _276  and  _278
REMARK  113  A    between atoms: _278  and  _279
REMARK  114  A    between atoms: _278  and  _281
REMARK  115  A    between atoms: _281  and  _282
REMARK  116  A    between atoms: _288  and  _290
REMARK  117  A    between atoms: _290  and  _291
REMARK  118  A    between atoms: _293  and  _295
REMARK  119  A    between atoms: _295  and  _296
REMARK  120  A    between atoms: _295  and  _298
REMARK  121  A    between atoms: _298  and  _299
REMARK  122  A    between atoms: _299  and  _300
REMARK  123  A    between atoms: _300  and  _301
REMARK  124  A    between atoms: _301  and  _302
REMARK  125  A    between atoms: _306  and  _308
REMARK  126  A    between atoms: _308  and  _309
REMARK  127  A    between atoms: _308  and  _311
REMARK  128  A    between atoms: _311  and  _312
REMARK  129  A    between atoms: _317  and  _318
REMARK  130  A    between atoms: _320  and  _322
REMARK  131  A    between atoms: _322  and  _323
REMARK  132  A    between atoms: _322  and  _325
REMARK  133  A    between atoms: _325  and  _326
REMARK  134  A    between atoms: _329  and  _331
REMARK  135  A    between atoms: _331  and  _332
REMARK  136  A    between atoms: _331  and  _334
REMARK  137  A    between atoms: _334  and  _335
REMARK  138  A    between atoms: _340  and  _341
REMARK  139  A    between atoms: _343  and  _345
REMARK  140  A    between atoms: _345  and  _346
REMARK  141  A    between atoms: _345  and  _348
REMARK  142  A    between atoms: _348  and  _349
REMARK  143  A    between atoms: _354  and  _355
REMARK  144  A    between atoms: _357  and  _359
REMARK  145  A    between atoms: _359  and  _360
REMARK  146  A    between atoms: _359  and  _362
REMARK  147  A    between atoms: _362  and  _363
REMARK  148  A    between atoms: _368  and  _369
REMARK  149  A    between atoms: _371  and  _373
REMARK  150  A    between atoms: _373  and  _374
REMARK  151  A    between atoms: _373  and  _376
REMARK  152  A    between atoms: _376  and  _377
REMARK  153  A    between atoms: _377  and  _378
REMARK  154  A    between atoms: _381  and  _383
REMARK  155  A    between atoms: _383  and  _384
REMARK  156  A    between atoms: _383  and  _386
REMARK  157  A    between atoms: _386  and  _387
REMARK  158  A    between atoms: _389  and  _391
REMARK  159  A    between atoms: _391  and  _392
REMARK  160  A    between atoms: _391  and  _394
REMARK  161  A    between atoms: _394  and  _395
REMARK  162  A    between atoms: _395  and  _505
REMARK  163  A    between atoms: _396  and  _398
REMARK  164  A    between atoms: _398  and  _399
REMARK  165  A    between atoms: _398  and  _401
REMARK  166  A    between atoms: _401  and  _402
REMARK  167  A    between atoms: _402  and  _403
REMARK  168  A    between atoms: _408  and  _410
REMARK  169  A    between atoms: _410  and  _411
REMARK  170  A    between atoms: _413  and  _415
REMARK  171  A    between atoms: _415  and  _416
REMARK  172  A    between atoms: _415  and  _418
REMARK  173  A    between atoms: _418  and  _419
REMARK  174  A    between atoms: _422  and  _424
REMARK  175  A    between atoms: _424  and  _425
REMARK  176  A    between atoms: _424  and  _427
REMARK  177  A    between atoms: _427  and  _428
REMARK  178  A    between atoms: _430  and  _432
REMARK  179  A    between atoms: _432  and  _433
REMARK  180  A    between atoms: _435  and  _437
REMARK  181  A    between atoms: _437  and  _438
REMARK  182  A    between atoms: _440  and  _442
REMARK  183  A    between atoms: _442  and  _443
REMARK  184  A    between atoms: _442  and  _445
REMARK  185  A    between atoms: _448  and  _450
REMARK  186  A    between atoms: _450  and  _451
REMARK  187  A    between atoms: _450  and  _453
REMARK  188  A    between atoms: _453  and  _454
REMARK  189  A    between atoms: _456  and  _458
REMARK  190  A    between atoms: _458  and  _459
REMARK  191  A    between atoms: _458  and  _461
REMARK  192  A    between atoms: _461  and  _462
REMARK  193  A    between atoms: _472  and  _474
REMARK  194  A    between atoms: _474  and  _475
REMARK  195  A    between atoms: _477  and  _479
REMARK  196  A    between atoms: _479  and  _480
REMARK  197  A    between atoms: _479  and  _482
REMARK  198  A    between atoms: _482  and  _483
REMARK  199  A    between atoms: _483  and  _484
REMARK  200  A    between atoms: _484  and  _485
REMARK  201  A    between atoms: _494  and  _496
REMARK  202  A    between atoms: _496  and  _497
REMARK  203  A    between atoms: _499  and  _501
REMARK  204  A    between atoms: _501  and  _502
REMARK  205  A    between atoms: _501  and  _504
REMARK  206  A    between atoms: _504  and  _505
REMARK  207  A    between atoms: _506  and  _508
REMARK  208  A    between atoms: _508  and  _509
REMARK  209  A    between atoms: _508  and  _511
REMARK  210  A    between atoms: _511  and  _512
REMARK  211  A    between atoms: _515  and  _517
REMARK  212  A    between atoms: _517  and  _518
REMARK  213  A    between atoms: _517  and  _520
REMARK  214  A    between atoms: _520  and  _521
REMARK  215  A    between atoms: _521  and  _522
REMARK  216  A    between atoms: _522  and  _523
REMARK  217  A    between atoms: _523  and  _524
REMARK  218  A    between atoms: _529  and  _530
REMARK  219  A    between atoms: _535  and  _537
REMARK  220  A    between atoms: _537  and  _538
REMARK  221  A    between atoms: _537  and  _540
REMARK                            x       y       z     vdW  Elec       q    Type
REMARK                         _______ _______ _______ _____ _____    ______ ____
ROOT
ATOM      1  CA  ILE A   1      -4.094 -24.038 -12.739  0.00  0.00    +0.133 C 
ENDROOT
BRANCH   1   2
ATOM      2  N   ILE A   1      -5.040 -25.144 -12.907  0.00  0.00    -0.239 NA
ATOM      3  H   ILE A   1      -4.907 -25.811 -13.694  0.00  0.00    +0.142 HD
ENDBRANCH   1   2
BRANCH   1   4
ATOM      4  CB  ILE A   1      -2.647 -24.551 -12.598  0.00  0.00    +0.023 C 
ATOM      5  CG2 ILE A   1      -1.711 -23.394 -12.285  0.00  0.00    +0.002 C 
BRANCH   4   6
ATOM      6  CG1 ILE A   1      -2.561 -25.637 -11.512  0.00  0.00    +0.002 C 
ATOM      7  CD1 ILE A   1      -1.315 -26.486 -11.556  0.00  0.00    +0.000 C 
ENDBRANCH   4   6
ENDBRANCH   1   4
BRANCH   1   8
ATOM      8  C   ILE A   1      -4.210 -23.039 -13.890  0.00  0.00    +0.224 C 
ATOM      9  O   ILE A   1      -4.195 -23.416 -15.081  0.00  0.00    -0.287 OA
ENDBRANCH   1   8
TORSDOF 4
REMARK  Name = ../refined-set-2016/4zhm/4zhm_pocket.pdb
REMARK  221 active torsions:
REMARK  status: ('A' for Active; 'I' for Inactive)
REMARK    1  A    between atoms: _1  and  _3
REMARK    2  A    between atoms: _3  and  _4
REMARK    3  A    between atoms: _3  and  _6
REMARK    4  A    between atoms: _6  and  _7
REMARK    5  A    between atoms: _10  and  _12
REMARK    6  A    between atoms: _12  and  _13
REMARK    7  A    between atoms: _12  and  _15
REMARK    8  A    between atoms: _15  and  _16
REMARK    9  A    between atoms: _16  and  _17
REMARK   10  A    between atoms: _17  and  _18
REMARK   11  A    between atoms: _27  and  _29
REMARK   12  A    between atoms: _29  and  _30
REMARK   13  A    between atoms: _29  and  _32
REMARK   14  A    between atoms: _32  and  _33
REMARK   15  A    between atoms: _38  and  _40
REMARK   16  A    between atoms: _40  and  _41
REMARK   17  A    between atoms: _40  and  _43
REMARK   18  A    between atoms: _43  and  _44
REMARK   19  A    between atoms: _47  and  _49
REMARK   20  A    between atoms: _49  and  _50
REMARK   21  A    between atoms: _49  and  _52
REMARK   22  A    between atoms: _52  and  _53
REMARK   23  A    between atoms: _58  and  _59
REMARK   24  A    between atoms: _61  and  _63
REMARK   25  A    between atoms: _63  and  _64
REMARK   26  A    between atoms: _63  and  _66
REMARK   27  A    between atoms: _69  and  _71
REMARK   28  A    between atoms: _71  and  _72
REMARK   29  A    between atoms: _71  and  _74
REMARK   30  A    between atoms: _74  and  _75
REMARK   31  A    between atoms: _75  and  _113
REMARK   32  A    between atoms: _76  and  _78
REMARK   33  A    between atoms: _78  and  _79
REMARK   34  A    between atoms: _81  and  _83
REMARK   35  A    between atoms: _83  and  _84
REMARK   36  A    between atoms: _87  and  _89
REMARK   37  A    between atoms: _89  and  _90
REMARK   38  A    between atoms: _89  and  _92
REMARK   39  A    between atoms: _92  and  _93
REMARK   40  A    between atoms: _96  and  _98
REMARK   41  A    between atoms: _98  and  _99
REMARK   42  A    between atoms: _98  and  _101
REMARK   43  A    between atoms: _101  and  _102
REMARK   44  A    between atoms: _107  and  _109
REMARK   45  A    between atoms: _109  and  _110
REMARK   46  A    between atoms: _109  and  _112
REMARK   47  A    between atoms: _112  and  _113
REMARK   48  A    between atoms: _114  and  _116
REMARK   49  A    between atoms: _116  and  _117
REMARK   50  A    between atoms: _116  and  _119
REMARK   51  A    between atoms: _119  and  _120
REMARK   52  A    between atoms: _126  and  _128
REMARK   53  A    between atoms: _128  and  _129
REMARK   54  A    between atoms: _128  and  _131
REMARK   55  A    between atoms: _131  and  _132
REMARK   56  A    between atoms: _135  and  _137
REMARK   57  A    between atoms: _137  and  _138
REMARK   58  A    between atoms: _137  and  _140
REMARK   59  A    between atoms: _140  and  _141
REMARK   60  A    between atoms: _144  and  _146
REMARK   61  A    between atoms: _146  and  _147
REMARK   62  A    between atoms: _146  and  _149
REMARK   63  A    between atoms: _149  and  _150
REMARK   64  A    between atoms: _155  and  _156
REMARK   65  A    between atoms: _158  and  _160
REMARK   66  A    between atoms: _160  and  _161
REMARK   67  A    between atoms: _160  and  _163
REMARK   68  A    between atoms: _163  and  _164
REMARK   69  A    between atoms: _169  and  _170
REMARK   70  A    between atoms: _172  and  _174
REMARK   71  A    between atoms: _174  and  _175
REMARK   72  A    between atoms: _174  and  _177
REMARK   73  A    between atoms: _177  and  _178
REMARK   74  A    between atoms: _181  and  _183
REMARK   75  A    between atoms: _183  and  _184
REMARK   76  A    between atoms: _183  and  _186
REMARK   77  A    between atoms: _186  and  _187
REMARK   78  A    between atoms: _192  and  _193
REMARK   79  A    between atoms: _195  and  _197
REMARK   80  A    between atoms: _197  and  _198
REMARK   81  A    between atoms: _197  and  _200
REMARK   82  A    between atoms: _200  and  _201
REMARK   83  A    between atoms: _203  and  _205
REMARK   84  A    between atoms: _205  and  _206
REMARK   85  A    between atoms: _209  and  _211
REMARK   86  A    between atoms: _211  and  _212
REMARK   87  A    between atoms: _211  and  _214
REMARK   88  A    between atoms: _214  and  _215
REMARK   89  A    between atoms: _218  and  _220
REMARK   90  A    between atoms: _220  and  _221
REMARK   91  A    between atoms: _220  and  _223
REMARK   92  A    between atoms: _223  and  _224
REMARK   93  A    between atoms: _227  and  _229
REMARK   94  A    between atoms: _229  and  _230
REMARK   95  A    between atoms: _229  and  _232
REMARK   96  A    between atoms: _232  and  _233
REMARK   97  A    between atoms: _236  and  _238
REMARK   98  A    between atoms: _238  and  _239
REMARK   99  A    between atoms: _242  and  _244
REMARK  100  A    between atoms: _244  and  _245
REMARK  101  A    between atoms: _244  and  _247
REMARK  102  A    between atoms: _247  and  _248
REMARK  103  A    between atoms: _253  and  _254
REMARK  104  A    between atoms: _256  and  _258
REMARK  105  A    between atoms: _258  and  _259
REMARK  106  A    between atoms: _258  and  _261
REMARK  107  A    between atoms: _261  and  _262
REMARK  108  A    between atoms: _267  and  _269
REMARK  109  A    between atoms: _269  and  _270
REMARK  110  A    between atoms: _269  and  _272
REMARK  111  A    between atoms: _272  and  _273
REMARK  112  A    between atoms: _276  and  _278
REMARK  113  A    between atoms: _278  and  _279
REMARK  114  A    between atoms: _278  and  _281
REMARK  115  A    between atoms: _281  and  _282
REMARK  116  A    between atoms: _288  and  _290
REMARK  117  A    between atoms: _290  and  _291
REMARK  118  A    between atoms: _293  and  _295
REMARK  119  A    between atoms: _295  and  _296
REMARK  120  A    between atoms: _295  and  _298
REMARK  121  A    between atoms: _298  and  _299
REMARK  122  A    between atoms: _299  and  _300
REMARK  123  A    between atoms: _300  and  _301
REMARK  124  A    between atoms: _301  and  _302
REMARK  125  A    between atoms: _306  and  _308
REMARK  126  A    between atoms: _308  and  _309
REMARK  127  A    between atoms: _308  and  _311
REMARK  128  A    between atoms: _311  and  _312
REMARK  129  A    between atoms: _317  and  _318
REMARK  130  A    between atoms: _320  and  _322
REMARK  131  A    between atoms: _322  and  _323
REMARK  132  A    between atoms: _322  and  _325
REMARK  133  A    between atoms: _325  and  _326
REMARK  134  A    between atoms: _329  and  _331
REMARK  135  A    between atoms: _331  and  _332
REMARK  136  A    between atoms: _331  and  _334
REMARK  137  A    between atoms: _334  and  _335
REMARK  138  A    between atoms: _340  and  _341
REMARK  139  A    between atoms: _343  and  _345
REMARK  140  A    between atoms: _345  and  _346
REMARK  141  A    between atoms: _345  and  _348
REMARK  142  A    between atoms: _348  and  _349
REMARK  143  A    between atoms: _354  and  _355
REMARK  144  A    between atoms: _357  and  _359
REMARK  145  A    between atoms: _359  and  _360
REMARK  146  A    between atoms: _359  and  _362
REMARK  147  A    between atoms: _362  and  _363
REMARK  148  A    between atoms: _368  and  _369
REMARK  149  A    between atoms: _371  and  _373
REMARK  150  A    between atoms: _373  and  _374
REMARK  151  A    between atoms: _373  and  _376
REMARK  152  A    between atoms: _376  and  _377
REMARK  153  A    between atoms: _377  and  _378
REMARK  154  A    between atoms: _381  and  _383
REMARK  155  A    between atoms: _383  and  _384
REMARK  156  A    between atoms: _383  and  _386
REMARK  157  A    between atoms: _386  and  _387
REMARK  158  A    between atoms: _389  and  _391
REMARK  159  A    between atoms: _391  and  _392
REMARK  160  A    between atoms: _391  and  _394
REMARK  161  A    between atoms: _394  and  _395
REMARK  162  A    between atoms: _395  and  _505
REMARK  163  A    between atoms: _396  and  _398
REMARK  164  A    between atoms: _398  and  _399
REMARK  165  A    between atoms: _398  and  _401
REMARK  166  A    between atoms: _401  and  _402
REMARK  167  A    between atoms: _402  and  _403
REMARK  168  A    between atoms: _408  and  _410
REMARK  169  A    between atoms: _410  and  _411
REMARK  170  A    between atoms: _413  and  _415
REMARK  171  A    between atoms: _415  and  _416
REMARK  172  A    between atoms: _415  and  _418
REMARK  173  A    between atoms: _418  and  _419
REMARK  174  A    between atoms: _422  and  _424
REMARK  175  A    between atoms: _424  and  _425
REMARK  176  A    between atoms: _424  and  _427
REMARK  177  A    between atoms: _427  and  _428
REMARK  178  A    between atoms: _430  and  _432
REMARK  179  A    between atoms: _432  and  _433
REMARK  180  A    between atoms: _435  and  _437
REMARK  181  A    between atoms: _437  and  _438
REMARK  182  A    between atoms: _440  and  _442
REMARK  183  A    between atoms: _442  and  _443
REMARK  184  A    between atoms: _442  and  _445
REMARK  185  A    between atoms: _448  and  _450
REMARK  186  A    between atoms: _450  and  _451
REMARK  187  A    between atoms: _450  and  _453
REMARK  188  A    between atoms: _453  and  _454
REMARK  189  A    between atoms: _456  and  _458
REMARK  190  A    between atoms: _458  and  _459
REMARK  191  A    between atoms: _458  and  _461
REMARK  192  A    between atoms: _461  and  _462
REMARK  193  A    between atoms: _472  and  _474
REMARK  194  A    between atoms: _474  and  _475
REMARK  195  A    between atoms: _477  and  _479
REMARK  196  A    between atoms: _479  and  _480
REMARK  197  A    between atoms: _479  and  _482
REMARK  198  A    between atoms: _482  and  _483
REMARK  199  A    between atoms: _483  and  _484
REMARK  200  A    between atoms: _484  and  _485
REMARK  201  A    between atoms: _494  and  _496
REMARK  202  A    between atoms: _496  and  _497
REMARK  203  A    between atoms: _499  and  _501
REMARK  204  A    between atoms: _501  and  _502
REMARK  205  A    between atoms: _501  and  _504
REMARK  206  A    between atoms: _504  and  _505
REMARK  207  A    between atoms: _506  and  _508
REMARK  208  A    between atoms: _508  and  _509
REMARK  209  A    between atoms: _508  and  _511
REMARK  210  A    between atoms: _511  and  _512
REMARK  211  A    between atoms: _515  and  _517
REMARK  212  A    between atoms: _517  and  _518
REMARK  213  A    between atoms: _517  and  _520
REMARK  214  A    between atoms: _520  and  _521
REMARK  215  A    between atoms: _521  and  _522
REMARK  216  A    between atoms: _522  and  _523
REMARK  217  A    between atoms: _523  and  _524
REMARK  218  A    between atoms: _529  and  _530
REMARK  219  A    between atoms: _535  and  _537
REMARK  220  A    between atoms: _537  and  _538
REMARK  221  A    between atoms: _537  and  _540
REMARK                            x       y       z     vdW  Elec       q    Type
REMARK                         _______ _______ _______ _____ _____    ______ ____
ROOT
ATOM      1  NE  ARG A   1       1.321 -16.789 -17.840  0.00  0.00    -0.265 N 
ATOM      2  HE  ARG A   1       1.468 -15.792 -18.099  0.00  0.00    +0.259 HD
ATOM      3  CZ  ARG A   1       1.412 -17.698 -18.777  0.00  0.00    +0.342 C 
ATOM      4  NH2 ARG A   1       1.225 -18.959 -18.468  0.00  0.00    -0.292 N 
ATOM      5 HH21 ARG A   1       1.007 -19.227 -17.487  0.00  0.00    +0.255 HD
ATOM      6 HH22 ARG A   1       1.295 -19.691 -19.204  0.00  0.00    +0.255 HD
ATOM      7  NH1 ARG A   1       1.696 -17.361 -20.014  0.00  0.00    -0.292 N 
ATOM      8 HH11 ARG A   1       1.851 -16.362 -20.258  0.00  0.00    +0.255 HD
ATOM      9 HH12 ARG A   1       1.765 -18.093 -20.749  0.00  0.00    +0.255 HD
ENDROOT
BRANCH   1  10
ATOM     10  CD  ARG A   1       1.028 -17.105 -16.476  0.00  0.00    +0.174 C 
BRANCH  10  11
ATOM     11  CG  ARG A   1      -0.376 -16.760 -16.168  0.00  0.00    +0.045 C 
BRANCH  11  12
ATOM     12  CB  ARG A   1      -1.262 -17.959 -16.091  0.00  0.00    +0.029 C 
BRANCH  12  13
ATOM     13  CA  ARG A   1      -2.468 -17.733 -15.213  0.00  0.00    +0.133 C 
BRANCH  13  14
ATOM     14  N   ARG A   1      -3.355 -18.873 -15.286  0.00  0.00    -0.239 NA
ATOM     15  H   ARG A   1      -3.844 -19.080 -16.180  0.00  0.00    +0.142 HD
ENDBRANCH  13  14
BRANCH  13  16
ATOM     16  C   ARG A   1      -3.137 -16.394 -15.547  0.00  0.00    +0.224 C 
ATOM     17  O   ARG A   1      -3.850 -16.296 -16.514  0.00  0.00    -0.287 OA
ENDBRANCH  13  16
ENDBRANCH  12  13
ENDBRANCH  11  12
ENDBRANCH  10  11
ENDBRANCH   1  10
TORSDOF 6
REMARK  Name = ../refined-set-2016/4zhm/4zhm_pocket.pdb
REMARK  221 active torsions:
REMARK  status: ('A' for Active; 'I' for Inactive)
REMARK    1  A    between atoms: _1  and  _3
REMARK    2  A    between atoms: _3  and  _4
REMARK    3  A    between atoms: _3  and  _6
REMARK    4  A    between atoms: _6  and  _7
REMARK    5  A    between atoms: _10  and  _12
REMARK    6  A    between atoms: _12  and  _13
REMARK    7  A    between atoms: _12  and  _15
REMARK    8  A    between atoms: _15  and  _16
REMARK    9  A    between atoms: _16  and  _17
REMARK   10  A    between atoms: _17  and  _18
REMARK   11  A    between atoms: _27  and  _29
REMARK   12  A    between atoms: _29  and  _30
REMARK   13  A    between atoms: _29  and  _32
REMARK   14  A    between atoms: _32  and  _33
REMARK   15  A    between atoms: _38  and  _40
REMARK   16  A    between atoms: _40  and  _41
REMARK   17  A    between atoms: _40  and  _43
REMARK   18  A    between atoms: _43  and  _44
REMARK   19  A    between atoms: _47  and  _49
REMARK   20  A    between atoms: _49  and  _50
REMARK   21  A    between atoms: _49  and  _52
REMARK   22  A    between atoms: _52  and  _53
REMARK   23  A    between atoms: _58  and  _59
REMARK   24  A    between atoms: _61  and  _63
REMARK   25  A    between atoms: _63  and  _64
REMARK   26  A    between atoms: _63  and  _66
REMARK   27  A    between atoms: _69  and  _71
REMARK   28  A    between atoms: _71  and  _72
REMARK   29  A    between atoms: _71  and  _74
REMARK   30  A    between atoms: _74  and  _75
REMARK   31  A    between atoms: _75  and  _113
REMARK   32  A    between atoms: _76  and  _78
REMARK   33  A    between atoms: _78  and  _79
REMARK   34  A    between atoms: _81  and  _83
REMARK   35  A    between atoms: _83  and  _84
REMARK   36  A    between atoms: _87  and  _89
REMARK   37  A    between atoms: _89  and  _90
REMARK   38  A    between atoms: _89  and  _92
REMARK   39  A    between atoms: _92  and  _93
REMARK   40  A    between atoms: _96  and  _98
REMARK   41  A    between atoms: _98  and  _99
REMARK   42  A    between atoms: _98  and  _101
REMARK   43  A    between atoms: _101  and  _102
REMARK   44  A    between atoms: _107  and  _109
REMARK   45  A    between atoms: _109  and  _110
REMARK   46  A    between atoms: _109  and  _112
REMARK   47  A    between atoms: _112  and  _113
REMARK   48  A    between atoms: _114  and  _116
REMARK   49  A    between atoms: _116  and  _117
REMARK   50  A    between atoms: _116  and  _119
REMARK   51  A    between atoms: _119  and  _120
REMARK   52  A    between atoms: _126  and  _128
REMARK   53  A    between atoms: _128  and  _129
REMARK   54  A    between atoms: _128  and  _131
REMARK   55  A    between atoms: _131  and  _132
REMARK   56  A    between atoms: _135  and  _137
REMARK   57  A    between atoms: _137  and  _138
REMARK   58  A    between atoms: _137  and  _140
REMARK   59  A    between atoms: _140  and  _141
REMARK   60  A    between atoms: _144  and  _146
REMARK   61  A    between atoms: _146  and  _147
REMARK   62  A    between atoms: _146  and  _149
REMARK   63  A    between atoms: _149  and  _150
REMARK   64  A    between atoms: _155  and  _156
REMARK   65  A    between atoms: _158  and  _160
REMARK   66  A    between atoms: _160  and  _161
REMARK   67  A    between atoms: _160  and  _163
REMARK   68  A    between atoms: _163  and  _164
REMARK   69  A    between atoms: _169  and  _170
REMARK   70  A    between atoms: _172  and  _174
REMARK   71  A    between atoms: _174  and  _175
REMARK   72  A    between atoms: _174  and  _177
REMARK   73  A    between atoms: _177  and  _178
REMARK   74  A    between atoms: _181  and  _183
REMARK   75  A    between atoms: _183  and  _184
REMARK   76  A    between atoms: _183  and  _186
REMARK   77  A    between atoms: _186  and  _187
REMARK   78  A    between atoms: _192  and  _193
REMARK   79  A    between atoms: _195  and  _197
REMARK   80  A    between atoms: _197  and  _198
REMARK   81  A    between atoms: _197  and  _200
REMARK   82  A    between atoms: _200  and  _201
REMARK   83  A    between atoms: _203  and  _205
REMARK   84  A    between atoms: _205  and  _206
REMARK   85  A    between atoms: _209  and  _211
REMARK   86  A    between atoms: _211  and  _212
REMARK   87  A    between atoms: _211  and  _214
REMARK   88  A    between atoms: _214  and  _215
REMARK   89  A    between atoms: _218  and  _220
REMARK   90  A    between atoms: _220  and  _221
REMARK   91  A    between atoms: _220  and  _223
REMARK   92  A    between atoms: _223  and  _224
REMARK   93  A    between atoms: _227  and  _229
REMARK   94  A    between atoms: _229  and  _230
REMARK   95  A    between atoms: _229  and  _232
REMARK   96  A    between atoms: _232  and  _233
REMARK   97  A    between atoms: _236  and  _238
REMARK   98  A    between atoms: _238  and  _239
REMARK   99  A    between atoms: _242  and  _244
REMARK  100  A    between atoms: _244  and  _245
REMARK  101  A    between atoms: _244  and  _247
REMARK  102  A    between atoms: _247  and  _248
REMARK  103  A    between atoms: _253  and  _254
REMARK  104  A    between atoms: _256  and  _258
REMARK  105  A    between atoms: _258  and  _259
REMARK  106  A    between atoms: _258  and  _261
REMARK  107  A    between atoms: _261  and  _262
REMARK  108  A    between atoms: _267  and  _269
REMARK  109  A    between atoms: _269  and  _270
REMARK  110  A    between atoms: _269  and  _272
REMARK  111  A    between atoms: _272  and  _273
REMARK  112  A    between atoms: _276  and  _278
REMARK  113  A    between atoms: _278  and  _279
REMARK  114  A    between atoms: _278  and  _281
REMARK  115  A    between atoms: _281  and  _282
REMARK  116  A    between atoms: _288  and  _290
REMARK  117  A    between atoms: _290  and  _291
REMARK  118  A    between atoms: _293  and  _295
REMARK  119  A    between atoms: _295  and  _296
REMARK  120  A    between atoms: _295  and  _298
REMARK  121  A    between atoms: _298  and  _299
REMARK  122  A    between atoms: _299  and  _300
REMARK  123  A    between atoms: _300  and  _301
REMARK  124  A    between atoms: _301  and  _302
REMARK  125  A    between atoms: _306  and  _308
REMARK  126  A    between atoms: _308  and  _309
REMARK  127  A    between atoms: _308  and  _311
REMARK  128  A    between atoms: _311  and  _312
REMARK  129  A    between atoms: _317  and  _318
REMARK  130  A    between atoms: _320  and  _322
REMARK  131  A    between atoms: _322  and  _323
REMARK  132  A    between atoms: _322  and  _325
REMARK  133  A    between atoms: _325  and  _326
REMARK  134  A    between atoms: _329  and  _331
REMARK  135  A    between atoms: _331  and  _332
REMARK  136  A    between atoms: _331  and  _334
REMARK  137  A    between atoms: _334  and  _335
REMARK  138  A    between atoms: _340  and  _341
REMARK  139  A    between atoms: _343  and  _345
REMARK  140  A    between atoms: _345  and  _346
REMARK  141  A    between atoms: _345  and  _348
REMARK  142  A    between atoms: _348  and  _349
REMARK  143  A    between atoms: _354  and  _355
REMARK  144  A    between atoms: _357  and  _359
REMARK  145  A    between atoms: _359  and  _360
REMARK  146  A    between atoms: _359  and  _362
REMARK  147  A    between atoms: _362  and  _363
REMARK  148  A    between atoms: _368  and  _369
REMARK  149  A    between atoms: _371  and  _373
REMARK  150  A    between atoms: _373  and  _374
REMARK  151  A    between atoms: _373  and  _376
REMARK  152  A    between atoms: _376  and  _377
REMARK  153  A    between atoms: _377  and  _378
REMARK  154  A    between atoms: _381  and  _383
REMARK  155  A    between atoms: _383  and  _384
REMARK  156  A    between atoms: _383  and  _386
REMARK  157  A    between atoms: _386  and  _387
REMARK  158  A    between atoms: _389  and  _391
REMARK  159  A    between atoms: _391  and  _392
REMARK  160  A    between atoms: _391  and  _394
REMARK  161  A    between atoms: _394  and  _395
REMARK  162  A    between atoms: _395  and  _505
REMARK  163  A    between atoms: _396  and  _398
REMARK  164  A    between atoms: _398  and  _399
REMARK  165  A    between atoms: _398  and  _401
REMARK  166  A    between atoms: _401  and  _402
REMARK  167  A    between atoms: _402  and  _403
REMARK  168  A    between atoms: _408  and  _410
REMARK  169  A    between atoms: _410  and  _411
REMARK  170  A    between atoms: _413  and  _415
REMARK  171  A    between atoms: _415  and  _416
REMARK  172  A    between atoms: _415  and  _418
REMARK  173  A    between atoms: _418  and  _419
REMARK  174  A    between atoms: _422  and  _424
REMARK  175  A    between atoms: _424  and  _425
REMARK  176  A    between atoms: _424  and  _427
REMARK  177  A    between atoms: _427  and  _428
REMARK  178  A    between atoms: _430  and  _432
REMARK  179  A    between atoms: _432  and  _433
REMARK  180  A    between atoms: _435  and  _437
REMARK  181  A    between atoms: _437  and  _438
REMARK  182  A    between atoms: _440  and  _442
REMARK  183  A    between atoms: _442  and  _443
REMARK  184  A    between atoms: _442  and  _445
REMARK  185  A    between atoms: _448  and  _450
REMARK  186  A    between atoms: _450  and  _451
REMARK  187  A    between atoms: _450  and  _453
REMARK  188  A    between atoms: _453  and  _454
REMARK  189  A    between atoms: _456  and  _458
REMARK  190  A    between atoms: _458  and  _459
REMARK  191  A    between atoms: _458  and  _461
REMARK  192  A    between atoms: _461  and  _462
REMARK  193  A    between atoms: _472  and  _474
REMARK  194  A    between atoms: _474  and  _475
REMARK  195  A    between atoms: _477  and  _479
REMARK  196  A    between atoms: _479  and  _480
REMARK  197  A    between atoms: _479  and  _482
REMARK  198  A    between atoms: _482  and  _483
REMARK  199  A    between atoms: _483  and  _484
REMARK  200  A    between atoms: _484  and  _485
REMARK  201  A    between atoms: _494  and  _496
REMARK  202  A    between atoms: _496  and  _497
REMARK  203  A    between atoms: _499  and  _501
REMARK  204  A    between atoms: _501  and  _502
REMARK  205  A    between atoms: _501  and  _504
REMARK  206  A    between atoms: _504  and  _505
REMARK  207  A    between atoms: _506  and  _508
REMARK  208  A    between atoms: _508  and  _509
REMARK  209  A    between atoms: _508  and  _511
REMARK  210  A    between atoms: _511  and  _512
REMARK  211  A    between atoms: _515  and  _517
REMARK  212  A    between atoms: _517  and  _518
REMARK  213  A    between atoms: _517  and  _520
REMARK  214  A    between atoms: _520  and  _521
REMARK  215  A    between atoms: _521  and  _522
REMARK  216  A    between atoms: _522  and  _523
REMARK  217  A    between atoms: _523  and  _524
REMARK  218  A    between atoms: _529  and  _530
REMARK  219  A    between atoms: _535  and  _537
REMARK  220  A    between atoms: _537  and  _538
REMARK  221  A    between atoms: _537  and  _540
REMARK                            x       y       z     vdW  Elec       q    Type
REMARK                         _______ _______ _______ _____ _____    ______ ____
ROOT
ATOM      1  CB  HIS A   1      -2.552 -12.066 -19.179  0.00  0.00    +0.072 C 
ENDROOT
BRANCH   1   2
ATOM      2  CG  HIS A   1      -2.558 -13.503 -19.586  0.00  0.00    +0.082 A 
ATOM      3  CD2 HIS A   1      -3.432 -14.497 -19.324  0.00  0.00    +0.115 A 
ATOM      4  NE2 HIS A   1      -2.973 -15.620 -19.956  0.00  0.00    -0.221 NA
ATOM      5  CE1 HIS A   1      -1.844 -15.333 -20.568  0.00  0.00    +0.199 A 
ATOM      6  ND1 HIS A   1      -1.574 -14.061 -20.359  0.00  0.00    -0.227 NA
ENDBRANCH   1   2
BRANCH   1   7
ATOM      7  CA  HIS A   1      -2.081 -11.833 -17.761  0.00  0.00    +0.139 C 
BRANCH   7   8
ATOM      8  N   HIS A   1      -2.885 -12.633 -16.855  0.00  0.00    -0.239 NA
ATOM      9  H   HIS A   1      -3.897 -12.753 -17.063  0.00  0.00    +0.142 HD
ENDBRANCH   7   8
BRANCH   7  10
ATOM     10  C   HIS A   1      -2.053 -10.327 -17.377  0.00  0.00    +0.224 C 
ATOM     11  O   HIS A   1      -2.694  -9.912 -16.440  0.00  0.00    -0.287 OA
ENDBRANCH   7  10
ENDBRANCH   1   7
TORSDOF 4
REMARK  Name = ../refined-set-2016/4zhm/4zhm_pocket.pdb
REMARK  221 active torsions:
REMARK  status: ('A' for Active; 'I' for Inactive)
REMARK    1  A    between atoms: _1  and  _3
REMARK    2  A    between atoms: _3  and  _4
REMARK    3  A    between atoms: _3  and  _6
REMARK    4  A    between atoms: _6  and  _7
REMARK    5  A    between atoms: _10  and  _12
REMARK    6  A    between atoms: _12  and  _13
REMARK    7  A    between atoms: _12  and  _15
REMARK    8  A    between atoms: _15  and  _16
REMARK    9  A    between atoms: _16  and  _17
REMARK   10  A    between atoms: _17  and  _18
REMARK   11  A    between atoms: _27  and  _29
REMARK   12  A    between atoms: _29  and  _30
REMARK   13  A    between atoms: _29  and  _32
REMARK   14  A    between atoms: _32  and  _33
REMARK   15  A    between atoms: _38  and  _40
REMARK   16  A    between atoms: _40  and  _41
REMARK   17  A    between atoms: _40  and  _43
REMARK   18  A    between atoms: _43  and  _44
REMARK   19  A    between atoms: _47  and  _49
REMARK   20  A    between atoms: _49  and  _50
REMARK   21  A    between atoms: _49  and  _52
REMARK   22  A    between atoms: _52  and  _53
REMARK   23  A    between atoms: _58  and  _59
REMARK   24  A    between atoms: _61  and  _63
REMARK   25  A    between atoms: _63  and  _64
REMARK   26  A    between atoms: _63  and  _66
REMARK   27  A    between atoms: _69  and  _71
REMARK   28  A    between atoms: _71  and  _72
REMARK   29  A    between atoms: _71  and  _74
REMARK   30  A    between atoms: _74  and  _75
REMARK   31  A    between atoms: _75  and  _113
REMARK   32  A    between atoms: _76  and  _78
REMARK   33  A    between atoms: _78  and  _79
REMARK   34  A    between atoms: _81  and  _83
REMARK   35  A    between atoms: _83  and  _84
REMARK   36  A    between atoms: _87  and  _89
REMARK   37  A    between atoms: _89  and  _90
REMARK   38  A    between atoms: _89  and  _92
REMARK   39  A    between atoms: _92  and  _93
REMARK   40  A    between atoms: _96  and  _98
REMARK   41  A    between atoms: _98  and  _99
REMARK   42  A    between atoms: _98  and  _101
REMARK   43  A    between atoms: _101  and  _102
REMARK   44  A    between atoms: _107  and  _109
REMARK   45  A    between atoms: _109  and  _110
REMARK   46  A    between atoms: _109  and  _112
REMARK   47  A    between atoms: _112  and  _113
REMARK   48  A    between atoms: _114  and  _116
REMARK   49  A    between atoms: _116  and  _117
REMARK   50  A    between atoms: _116  and  _119
REMARK   51  A    between atoms: _119  and  _120
REMARK   52  A    between atoms: _126  and  _128
REMARK   53  A    between atoms: _128  and  _129
REMARK   54  A    between atoms: _128  and  _131
REMARK   55  A    between atoms: _131  and  _132
REMARK   56  A    between atoms: _135  and  _137
REMARK   57  A    between atoms: _137  and  _138
REMARK   58  A    between atoms: _137  and  _140
REMARK   59  A    between atoms: _140  and  _141
REMARK   60  A    between atoms: _144  and  _146
REMARK   61  A    between atoms: _146  and  _147
REMARK   62  A    between atoms: _146  and  _149
REMARK   63  A    between atoms: _149  and  _150
REMARK   64  A    between atoms: _155  and  _156
REMARK   65  A    between atoms: _158  and  _160
REMARK   66  A    between atoms: _160  and  _161
REMARK   67  A    between atoms: _160  and  _163
REMARK   68  A    between atoms: _163  and  _164
REMARK   69  A    between atoms: _169  and  _170
REMARK   70  A    between atoms: _172  and  _174
REMARK   71  A    between atoms: _174  and  _175
REMARK   72  A    between atoms: _174  and  _177
REMARK   73  A    between atoms: _177  and  _178
REMARK   74  A    between atoms: _181  and  _183
REMARK   75  A    between atoms: _183  and  _184
REMARK   76  A    between atoms: _183  and  _186
REMARK   77  A    between atoms: _186  and  _187
REMARK   78  A    between atoms: _192  and  _193
REMARK   79  A    between atoms: _195  and  _197
REMARK   80  A    between atoms: _197  and  _198
REMARK   81  A    between atoms: _197  and  _200
REMARK   82  A    between atoms: _200  and  _201
REMARK   83  A    between atoms: _203  and  _205
REMARK   84  A    between atoms: _205  and  _206
REMARK   85  A    between atoms: _209  and  _211
REMARK   86  A    between atoms: _211  and  _212
REMARK   87  A    between atoms: _211  and  _214
REMARK   88  A    between atoms: _214  and  _215
REMARK   89  A    between atoms: _218  and  _220
REMARK   90  A    between atoms: _220  and  _221
REMARK   91  A    between atoms: _220  and  _223
REMARK   92  A    between atoms: _223  and  _224
REMARK   93  A    between atoms: _227  and  _229
REMARK   94  A    between atoms: _229  and  _230
REMARK   95  A    between atoms: _229  and  _232
REMARK   96  A    between atoms: _232  and  _233
REMARK   97  A    between atoms: _236  and  _238
REMARK   98  A    between atoms: _238  and  _239
REMARK   99  A    between atoms: _242  and  _244
REMARK  100  A    between atoms: _244  and  _245
REMARK  101  A    between atoms: _244  and  _247
REMARK  102  A    between atoms: _247  and  _248
REMARK  103  A    between atoms: _253  and  _254
REMARK  104  A    between atoms: _256  and  _258
REMARK  105  A    between atoms: _258  and  _259
REMARK  106  A    between atoms: _258  and  _261
REMARK  107  A    between atoms: _261  and  _262
REMARK  108  A    between atoms: _267  and  _269
REMARK  109  A    between atoms: _269  and  _270
REMARK  110  A    between atoms: _269  and  _272
REMARK  111  A    between atoms: _272  and  _273
REMARK  112  A    between atoms: _276  and  _278
REMARK  113  A    between atoms: _278  and  _279
REMARK  114  A    between atoms: _278  and  _281
REMARK  115  A    between atoms: _281  and  _282
REMARK  116  A    between atoms: _288  and  _290
REMARK  117  A    between atoms: _290  and  _291
REMARK  118  A    between atoms: _293  and  _295
REMARK  119  A    between atoms: _295  and  _296
REMARK  120  A    between atoms: _295  and  _298
REMARK  121  A    between atoms: _298  and  _299
REMARK  122  A    between atoms: _299  and  _300
REMARK  123  A    between atoms: _300  and  _301
REMARK  124  A    between atoms: _301  and  _302
REMARK  125  A    between atoms: _306  and  _308
REMARK  126  A    between atoms: _308  and  _309
REMARK  127  A    between atoms: _308  and  _311
REMARK  128  A    between atoms: _311  and  _312
REMARK  129  A    between atoms: _317  and  _318
REMARK  130  A    between atoms: _320  and  _322
REMARK  131  A    between atoms: _322  and  _323
REMARK  132  A    between atoms: _322  and  _325
REMARK  133  A    between atoms: _325  and  _326
REMARK  134  A    between atoms: _329  and  _331
REMARK  135  A    between atoms: _331  and  _332
REMARK  136  A    between atoms: _331  and  _334
REMARK  137  A    between atoms: _334  and  _335
REMARK  138  A    between atoms: _340  and  _341
REMARK  139  A    between atoms: _343  and  _345
REMARK  140  A    between atoms: _345  and  _346
REMARK  141  A    between atoms: _345  and  _348
REMARK  142  A    between atoms: _348  and  _349
REMARK  143  A    between atoms: _354  and  _355
REMARK  144  A    between atoms: _357  and  _359
REMARK  145  A    between atoms: _359  and  _360
REMARK  146  A    between atoms: _359  and  _362
REMARK  147  A    between atoms: _362  and  _363
REMARK  148  A    between atoms: _368  and  _369
REMARK  149  A    between atoms: _371  and  _373
REMARK  150  A    between atoms: _373  and  _374
REMARK  151  A    between atoms: _373  and  _376
REMARK  152  A    between atoms: _376  and  _377
REMARK  153  A    between atoms: _377  and  _378
REMARK  154  A    between atoms: _381  and  _383
REMARK  155  A    between atoms: _383  and  _384
REMARK  156  A    between atoms: _383  and  _386
REMARK  157  A    between atoms: _386  and  _387
REMARK  158  A    between atoms: _389  and  _391
REMARK  159  A    between atoms: _391  and  _392
REMARK  160  A    between atoms: _391  and  _394
REMARK  161  A    between atoms: _394  and  _395
REMARK  162  A    between atoms: _395  and  _505
REMARK  163  A    between atoms: _396  and  _398
REMARK  164  A    between atoms: _398  and  _399
REMARK  165  A    between atoms: _398  and  _401
REMARK  166  A    between atoms: _401  and  _402
REMARK  167  A    between atoms: _402  and  _403
REMARK  168  A    between atoms: _408  and  _410
REMARK  169  A    between atoms: _410  and  _411
REMARK  170  A    between atoms: _413  and  _415
REMARK  171  A    between atoms: _415  and  _416
REMARK  172  A    between atoms: _415  and  _418
REMARK  173  A    between atoms: _418  and  _419
REMARK  174  A    between atoms: _422  and  _424
REMARK  175  A    between atoms: _424  and  _425
REMARK  176  A    between atoms: _424  and  _427
REMARK  177  A    between atoms: _427  and  _428
REMARK  178  A    between atoms: _430  and  _432
REMARK  179  A    between atoms: _432  and  _433
REMARK  180  A    between atoms: _435  and  _437
REMARK  181  A    between atoms: _437  and  _438
REMARK  182  A    between atoms: _440  and  _442
REMARK  183  A    between atoms: _442  and  _443
REMARK  184  A    between atoms: _442  and  _445
REMARK  185  A    between atoms: _448  and  _450
REMARK  186  A    between atoms: _450  and  _451
REMARK  187  A    between atoms: _450  and  _453
REMARK  188  A    between atoms: _453  and  _454
REMARK  189  A    between atoms: _456  and  _458
REMARK  190  A    between atoms: _458  and  _459
REMARK  191  A    between atoms: _458  and  _461
REMARK  192  A    between atoms: _461  and  _462
REMARK  193  A    between atoms: _472  and  _474
REMARK  194  A    between atoms: _474  and  _475
REMARK  195  A    between atoms: _477  and  _479
REMARK  196  A    between atoms: _479  and  _480
REMARK  197  A    between atoms: _479  and  _482
REMARK  198  A    between atoms: _482  and  _483
REMARK  199  A    between atoms: _483  and  _484
REMARK  200  A    between atoms: _484  and  _485
REMARK  201  A    between atoms: _494  and  _496
REMARK  202  A    between atoms: _496  and  _497
REMARK  203  A    between atoms: _499  and  _501
REMARK  204  A    between atoms: _501  and  _502
REMARK  205  A    between atoms: _501  and  _504
REMARK  206  A    between atoms: _504  and  _505
REMARK  207  A    between atoms: _506  and  _508
REMARK  208  A    between atoms: _508  and  _509
REMARK  209  A    between atoms: _508  and  _511
REMARK  210  A    between atoms: _511  and  _512
REMARK  211  A    between atoms: _515  and  _517
REMARK  212  A    between atoms: _517  and  _518
REMARK  213  A    between atoms: _517  and  _520
REMARK  214  A    between atoms: _520  and  _521
REMARK  215  A    between atoms: _521  and  _522
REMARK  216  A    between atoms: _522  and  _523
REMARK  217  A    between atoms: _523  and  _524
REMARK  218  A    between atoms: _529  and  _530
REMARK  219  A    between atoms: _535  and  _537
REMARK  220  A    between atoms: _537  and  _538
REMARK  221  A    between atoms: _537  and  _540
REMARK                            x       y       z     vdW  Elec       q    Type
REMARK                         _______ _______ _______ _____ _____    ______ ____
ROOT
ATOM      1  CA  CYS A   4       3.840 -25.358 -17.513  0.00  0.00    +0.160 C 
ENDROOT
BRANCH   1   2
ATOM      2  N   CYS A   4       4.976 -26.244 -17.641  0.00  0.00    -0.296 N 
ATOM      3  H   CYS A   4       5.044 -27.055 -16.994  0.00  0.00    +0.150 HD
ATOM      4  C   HIS A   3       5.926 -26.076 -18.533  0.00  0.00    +0.241 C 
ATOM      5  O   HIS A   3       5.900 -25.153 -19.344  0.00  0.00    -0.273 OA
BRANCH   4   6
ATOM      6  CA  HIS A   3       7.081 -27.096 -18.547  0.00  0.00    +0.155 C 
BRANCH   6   7
ATOM      7  N   HIS A   3       7.271 -27.726 -17.230  0.00  0.00    -0.297 N 
ATOM      8  C   THR A   2       7.499 -26.975 -16.158  0.00  0.00    +0.243 C 
ATOM      9  O   THR A   2       7.501 -25.750 -16.202  0.00  0.00    -0.273 OA
ATOM     10  H   HIS A   3       7.227 -28.761 -17.139  0.00  0.00    +0.150 HD
BRANCH   8  11
ATOM     11  CA  THR A   2       7.742 -27.682 -14.825  0.00  0.00    +0.176 C 
BRANCH  11  12
ATOM     12  N   THR A   2       6.972 -28.926 -14.716  0.00  0.00    -0.295 N 
ATOM     13  C   ALA A   1       5.647 -28.885 -14.621  0.00  0.00    +0.238 C 
ATOM     14  O   ALA A   1       5.023 -27.822 -14.596  0.00  0.00    -0.274 OA
ATOM     15  H   THR A   2       7.464 -29.842 -14.713  0.00  0.00    +0.150 HD
BRANCH  13  16
ATOM     16  CA  ALA A   1       4.929 -30.229 -14.537  0.00  0.00    +0.145 C 
ATOM     17  CB  ALA A   1       4.548 -30.713 -15.932  0.00  0.00    +0.028 C 
BRANCH  16  18
ATOM     18  N   ALA A   1       3.744 -30.145 -13.672  0.00  0.00    -0.238 NA
ATOM     19  H   ALA A   1       2.929 -29.586 -13.995  0.00  0.00    +0.142 HD
ENDBRANCH  16  18
ENDBRANCH  13  16
ENDBRANCH  11  12
BRANCH  11  20
ATOM     20  CB  THR A   2       9.252 -27.903 -14.613  0.00  0.00    +0.137 C 
ATOM     21  CG2 THR A   2      10.071 -26.783 -15.242  0.00  0.00    +0.034 C 
BRANCH  20  22
ATOM     22  OG1 THR A   2       9.531 -27.906 -13.203  0.00  0.00    -0.382 OA
ATOM     23  HG1 THR A   2       9.022 -28.636 -12.769  0.00  0.00    +0.210 HD
ENDBRANCH  20  22
ENDBRANCH  11  20
ENDBRANCH   8  11
ENDBRANCH   6   7
BRANCH   6  24
ATOM     24  CB  HIS A   3       6.865 -28.143 -19.654  0.00  0.00    +0.076 C 
BRANCH  24  25
ATOM     25  CG  HIS A   3       5.509 -28.793 -19.635  0.00  0.00    +0.082 A 
ATOM     26  ND1 HIS A   3       5.331 -30.134 -19.390  0.00  0.00    -0.227 NA
ATOM     27  CE1 HIS A   3       4.044 -30.430 -19.453  0.00  0.00    +0.199 A 
ATOM     28  NE2 HIS A   3       3.377 -29.321 -19.725  0.00  0.00    -0.221 NA
ATOM     29  CD2 HIS A   3       4.272 -28.287 -19.856  0.00  0.00    +0.115 A 
ENDBRANCH  24  25
ENDBRANCH   6  24
ENDBRANCH   4   6
ENDBRANCH   1   2
BRANCH   1  30
ATOM     30  C   CYS A   4       4.177 -23.962 -17.093  0.00  0.00    +0.242 C 
ATOM     31  N   PHE A   5       5.246 -23.831 -16.330  0.00  0.00    -0.297 N 
ATOM     32  H   PHE A   5       5.889 -24.642 -16.229  0.00  0.00    +0.150 HD
ATOM     33  O   CYS A   4       3.433 -23.065 -17.356  0.00  0.00    -0.273 OA
BRANCH  31  34
ATOM     34  CA  PHE A   5       5.559 -22.611 -15.632  0.00  0.00    +0.153 C 
BRANCH  34  35
ATOM     35  C   PHE A   5       6.866 -21.939 -16.061  0.00  0.00    +0.241 C 
ATOM     36  O   PHE A   5       7.100 -20.816 -15.746  0.00  0.00    -0.273 OA
ATOM     37  N   ILE A   6       7.708 -22.674 -16.748  0.00  0.00    -0.297 N 
ATOM     38  H   ILE A   6       7.385 -23.598 -17.099  0.00  0.00    +0.150 HD
BRANCH  37  39
ATOM     39  CA  ILE A   6       9.064 -22.263 -17.042  0.00  0.00    +0.149 C 
BRANCH  39  40
ATOM     40  C   ILE A   6       9.165 -20.947 -17.842  0.00  0.00    +0.241 C 
ATOM     41  O   ILE A   6      10.094 -20.198 -17.661  0.00  0.00    -0.273 OA
ATOM     42  N   ASP A   7       8.210 -20.703 -18.727  0.00  0.00    -0.297 N 
ATOM     43  H   ASP A   7       7.474 -21.424 -18.871  0.00  0.00    +0.150 HD
BRANCH  42  44
ATOM     44  CA  ASP A   7       8.140 -19.482 -19.504  0.00  0.00    +0.160 C 
BRANCH  44  45
ATOM     45  C   ASP A   7       7.780 -18.195 -18.752  0.00  0.00    +0.241 C 
ATOM     46  N   TYR A   8       7.053 -18.346 -17.652  0.00  0.00    -0.298 N 
ATOM     47  H   TYR A   8       6.732 -19.307 -17.416  0.00  0.00    +0.150 HD
ATOM     48  O   ASP A   7       8.056 -17.116 -19.218  0.00  0.00    -0.273 OA
BRANCH  46  49
ATOM     49  CA  TYR A   8       6.673 -17.276 -16.756  0.00  0.00    +0.141 C 
BRANCH  49  50
ATOM     50  C   TYR A   8       6.744 -17.727 -15.283  0.00  0.00    +0.227 C 
ATOM     51  O   TYR A   8       5.733 -17.943 -14.653  0.00  0.00    -0.286 OA
ENDBRANCH  49  50
BRANCH  49  52
ATOM     52  CB  TYR A   8       5.262 -16.827 -17.071  0.00  0.00    +0.054 C 
BRANCH  52  53
ATOM     53  CG  TYR A   8       5.037 -16.191 -18.421  0.00  0.00    -0.020 A 
ATOM     54  CD2 TYR A   8       5.384 -14.869 -18.652  0.00  0.00    -0.001 A 
ATOM     55  CE2 TYR A   8       5.163 -14.267 -19.883  0.00  0.00    +0.036 A 
ATOM     56  CZ  TYR A   8       4.587 -14.962 -20.886  0.00  0.00    +0.134 A 
ATOM     57  CE1 TYR A   8       4.218 -16.281 -20.697  0.00  0.00    +0.036 A 
ATOM     58  CD1 TYR A   8       4.435 -16.887 -19.464  0.00  0.00    -0.001 A 
BRANCH  56  59
ATOM     59  OH  TYR A   8       4.381 -14.317 -22.079  0.00  0.00    -0.506 OA
ATOM     60  HH  TYR A   8       4.712 -13.386 -22.011  0.00  0.00    +0.292 HD
ENDBRANCH  56  59
ENDBRANCH  52  53
ENDBRANCH  49  52
ENDBRANCH  46  49
ENDBRANCH  44  45
BRANCH  44  61
ATOM     61  CB  ASP A   7       7.270 -19.675 -20.713  0.00  0.00    +0.143 C 
BRANCH  61  62
ATOM     62  CG  ASP A   7       7.790 -20.760 -21.625  0.00  0.00    +0.367 C 
ATOM     63  OD2 ASP A   7       9.000 -20.919 -21.736  0.00  0.00    -0.246 OA
ATOM     64  OD1 ASP A   7       6.991 -21.467 -22.245  0.00  0.00    -0.246 OA
ENDBRANCH  61  62
ENDBRANCH  44  61
ENDBRANCH  42  44
ENDBRANCH  39  40
BRANCH  39  65
ATOM     65  CB  ILE A   6       9.870 -23.408 -17.695  0.00  0.00    +0.027 C 
ATOM     66  CG2 ILE A   6       9.482 -23.589 -19.143  0.00  0.00    +0.002 C 
BRANCH  65  67
ATOM     67  CG1 ILE A   6      11.352 -23.130 -17.627  0.00  0.00    +0.002 C 
ATOM     68  CD1 ILE A   6      11.950 -23.243 -16.261  0.00  0.00    +0.000 C 
ENDBRANCH  65  67
ENDBRANCH  39  65
ENDBRANCH  37  39
ENDBRANCH  34  35
BRANCH  34  69
ATOM     69  CB  PHE A   5       5.601 -22.879 -14.131  0.00  0.00    +0.055 C 
BRANCH  69  70
ATOM     70  CG  PHE A   5       4.385 -23.565 -13.606  0.00  0.00    -0.020 A 
ATOM     71  CD2 PHE A   5       3.258 -22.865 -13.359  0.00  0.00    -0.004 A 
ATOM     72  CE2 PHE A   5       2.144 -23.479 -12.898  0.00  0.00    -0.000 A 
ATOM     73  CZ  PHE A   5       2.144 -24.814 -12.696  0.00  0.00    -0.000 A 
ATOM     74  CE1 PHE A   5       3.261 -25.536 -12.940  0.00  0.00    -0.000 A 
ATOM     75  CD1 PHE A   5       4.378 -24.910 -13.397  0.00  0.00    -0.004 A 
ENDBRANCH  69  70
ENDBRANCH  34  69
ENDBRANCH  31  34
ENDBRANCH   1  30
BRANCH   1  76
ATOM     76  CB  CYS A   4       2.885 -25.860 -16.472  0.00  0.00    +0.098 C 
BRANCH  76  77
ATOM     77  SG  CYS A   4       2.213 -27.451 -16.824  0.00  0.00    -0.080 S 
BRANCH  77  78
ATOM     78  SG  CYS A   4       0.512 -27.046 -17.733  0.00  0.00    -0.080 S 
BRANCH  78  79
ATOM     79  CB  CYS A   4      -0.677 -27.072 -16.375  0.00  0.00    +0.098 C 
BRANCH  79  80
ATOM     80  CA  CYS A   4      -2.145 -26.932 -16.783  0.00  0.00    +0.160 C 
BRANCH  80  81
ATOM     81  C   CYS A   4      -2.981 -27.580 -15.695  0.00  0.00    +0.242 C 
ATOM     82  O   CYS A   4      -3.533 -26.907 -14.848  0.00  0.00    -0.273 OA
ATOM     83  N   PHE A   5      -3.033 -28.903 -15.721  0.00  0.00    -0.296 N 
ATOM     84  H   PHE A   5      -2.696 -29.409 -16.565  0.00  0.00    +0.150 HD
BRANCH  83  85
ATOM     85  CA  PHE A   5      -3.550 -29.660 -14.598  0.00  0.00    +0.163 C 
BRANCH  85  86
ATOM     86  C   PHE A   5      -2.502 -29.850 -13.517  0.00  0.00    +0.229 C 
ATOM     87  O   PHE A   5      -1.328 -29.482 -13.678  0.00  0.00    -0.286 OA
ENDBRANCH  85  86
ENDBRANCH  83  85
ENDBRANCH  80  81
BRANCH  80  89
ATOM     88  C   HIS A   3      -2.170 -24.832 -18.025  0.00  0.00    +0.241 C 
ATOM     89  N   CYS A   4      -2.481 -25.521 -16.928  0.00  0.00    -0.296 N 
ATOM     90  H   CYS A   4      -2.978 -25.038 -16.152  0.00  0.00    +0.150 HD
ATOM     91  O   HIS A   3      -1.730 -25.361 -19.042  0.00  0.00    -0.273 OA
BRANCH  88  92
ATOM     92  CA  HIS A   3      -2.355 -23.314 -17.949  0.00  0.00    +0.149 C 
BRANCH  92  94
ATOM     93  C   THR A   2      -4.518 -22.403 -18.655  0.00  0.00    +0.241 C 
ATOM     94  N   HIS A   3      -3.759 -22.998 -17.741  0.00  0.00    -0.297 N 
ATOM     95  H   HIS A   3      -4.192 -23.251 -16.830  0.00  0.00    +0.150 HD
ATOM     96  O   THR A   2      -4.140 -22.143 -19.787  0.00  0.00    -0.273 OA
BRANCH  93  97
ATOM     97  CA  THR A   2      -5.925 -22.059 -18.216  0.00  0.00    +0.153 C 
BRANCH  97 100
ATOM     98  C   ALA A   1      -5.792 -19.639 -18.380  0.00  0.00    +0.241 C 
ATOM     99  O   ALA A   1      -4.849 -19.581 -17.657  0.00  0.00    -0.274 OA
ATOM    100  N   THR A   2      -6.365 -20.768 -18.725  0.00  0.00    -0.297 N 
ATOM    101  H   THR A   2      -7.165 -20.739 -19.388  0.00  0.00    +0.150 HD
BRANCH  98 102
ATOM    102  CA  ALA A   1      -6.396 -18.404 -18.980  0.00  0.00    +0.172 C 
BRANCH 102 103
ATOM    103  CB  ALA A   1      -5.741 -18.156 -20.334  0.00  0.00    +0.135 C 
ATOM    104  CG2 ALA A   1      -6.383 -17.026 -21.030  0.00  0.00    +0.034 C 
BRANCH 103 105
ATOM    105  OG1 ALA A   1      -4.374 -17.871 -20.143  0.00  0.00    -0.383 OA
ATOM    106  HG1 ALA A   1      -4.282 -17.064 -19.576  0.00  0.00    +0.210 HD
ENDBRANCH 103 105
ENDBRANCH 102 103
BRANCH 102 107
ATOM    107  N   ALA A   1      -6.250 -17.275 -18.115  0.00  0.00    -0.236 NA
ATOM    108  H   ALA A   1      -5.327 -17.085 -17.675  0.00  0.00    +0.142 HD
ENDBRANCH 102 107
ENDBRANCH  98 102
ENDBRANCH  97 100
BRANCH  97 109
ATOM    109  CB  THR A   2      -6.869 -23.131 -18.698  0.00  0.00    +0.055 C 
BRANCH 109 110
ATOM    110  CG  THR A   2      -6.663 -24.470 -18.047  0.00  0.00    -0.020 A 
ATOM    111  CD2 THR A   2      -6.890 -24.644 -16.683  0.00  0.00    -0.001 A 
ATOM    112  CE2 THR A   2      -6.726 -25.873 -16.085  0.00  0.00    +0.036 A 
ATOM    113  CZ  THR A   2      -6.347 -26.958 -16.840  0.00  0.00    +0.134 A 
ATOM    114  CE1 THR A   2      -6.117 -26.816 -18.200  0.00  0.00    +0.036 A 
ATOM    115  CD1 THR A   2      -6.276 -25.570 -18.791  0.00  0.00    -0.001 A 
BRANCH 113 116
ATOM    116  OH  THR A   2      -6.205 -28.187 -16.230  0.00  0.00    -0.506 OA
ATOM    117  HH  THR A   2      -6.831 -28.833 -16.643  0.00  0.00    +0.292 HD
ENDBRANCH 113 116
ENDBRANCH 109 110
ENDBRANCH  97 109
ENDBRANCH  93  97
ENDBRANCH  92  94
BRANCH  92 118
ATOM    118  CB  HIS A   3      -1.496 -22.757 -16.786  0.00  0.00    +0.027 C 
ATOM    119  CG2 HIS A   3      -1.556 -21.238 -16.754  0.00  0.00    +0.002 C 
ATOM    120  CG1 HIS A   3      -0.053 -23.229 -16.878  0.00  0.00    +0.002 C 
ENDBRANCH  92 118
ENDBRANCH  88  92
ENDBRANCH  80  89
ENDBRANCH  79  80
ENDBRANCH  78  79
ENDBRANCH  77  78
ENDBRANCH  76  77
ENDBRANCH   1  76
TORSDOF 50
REMARK  Name = ../refined-set-2016/4zhm/4zhm_pocket.pdb
REMARK  221 active torsions:
REMARK  status: ('A' for Active; 'I' for Inactive)
REMARK    1  A    between atoms: _1  and  _3
REMARK    2  A    between atoms: _3  and  _4
REMARK    3  A    between atoms: _3  and  _6
REMARK    4  A    between atoms: _6  and  _7
REMARK    5  A    between atoms: _10  and  _12
REMARK    6  A    between atoms: _12  and  _13
REMARK    7  A    between atoms: _12  and  _15
REMARK    8  A    between atoms: _15  and  _16
REMARK    9  A    between atoms: _16  and  _17
REMARK   10  A    between atoms: _17  and  _18
REMARK   11  A    between atoms: _27  and  _29
REMARK   12  A    between atoms: _29  and  _30
REMARK   13  A    between atoms: _29  and  _32
REMARK   14  A    between atoms: _32  and  _33
REMARK   15  A    between atoms: _38  and  _40
REMARK   16  A    between atoms: _40  and  _41
REMARK   17  A    between atoms: _40  and  _43
REMARK   18  A    between atoms: _43  and  _44
REMARK   19  A    between atoms: _47  and  _49
REMARK   20  A    between atoms: _49  and  _50
REMARK   21  A    between atoms: _49  and  _52
REMARK   22  A    between atoms: _52  and  _53
REMARK   23  A    between atoms: _58  and  _59
REMARK   24  A    between atoms: _61  and  _63
REMARK   25  A    between atoms: _63  and  _64
REMARK   26  A    between atoms: _63  and  _66
REMARK   27  A    between atoms: _69  and  _71
REMARK   28  A    between atoms: _71  and  _72
REMARK   29  A    between atoms: _71  and  _74
REMARK   30  A    between atoms: _74  and  _75
REMARK   31  A    between atoms: _75  and  _113
REMARK   32  A    between atoms: _76  and  _78
REMARK   33  A    between atoms: _78  and  _79
REMARK   34  A    between atoms: _81  and  _83
REMARK   35  A    between atoms: _83  and  _84
REMARK   36  A    between atoms: _87  and  _89
REMARK   37  A    between atoms: _89  and  _90
REMARK   38  A    between atoms: _89  and  _92
REMARK   39  A    between atoms: _92  and  _93
REMARK   40  A    between atoms: _96  and  _98
REMARK   41  A    between atoms: _98  and  _99
REMARK   42  A    between atoms: _98  and  _101
REMARK   43  A    between atoms: _101  and  _102
REMARK   44  A    between atoms: _107  and  _109
REMARK   45  A    between atoms: _109  and  _110
REMARK   46  A    between atoms: _109  and  _112
REMARK   47  A    between atoms: _112  and  _113
REMARK   48  A    between atoms: _114  and  _116
REMARK   49  A    between atoms: _116  and  _117
REMARK   50  A    between atoms: _116  and  _119
REMARK   51  A    between atoms: _119  and  _120
REMARK   52  A    between atoms: _126  and  _128
REMARK   53  A    between atoms: _128  and  _129
REMARK   54  A    between atoms: _128  and  _131
REMARK   55  A    between atoms: _131  and  _132
REMARK   56  A    between atoms: _135  and  _137
REMARK   57  A    between atoms: _137  and  _138
REMARK   58  A    between atoms: _137  and  _140
REMARK   59  A    between atoms: _140  and  _141
REMARK   60  A    between atoms: _144  and  _146
REMARK   61  A    between atoms: _146  and  _147
REMARK   62  A    between atoms: _146  and  _149
REMARK   63  A    between atoms: _149  and  _150
REMARK   64  A    between atoms: _155  and  _156
REMARK   65  A    between atoms: _158  and  _160
REMARK   66  A    between atoms: _160  and  _161
REMARK   67  A    between atoms: _160  and  _163
REMARK   68  A    between atoms: _163  and  _164
REMARK   69  A    between atoms: _169  and  _170
REMARK   70  A    between atoms: _172  and  _174
REMARK   71  A    between atoms: _174  and  _175
REMARK   72  A    between atoms: _174  and  _177
REMARK   73  A    between atoms: _177  and  _178
REMARK   74  A    between atoms: _181  and  _183
REMARK   75  A    between atoms: _183  and  _184
REMARK   76  A    between atoms: _183  and  _186
REMARK   77  A    between atoms: _186  and  _187
REMARK   78  A    between atoms: _192  and  _193
REMARK   79  A    between atoms: _195  and  _197
REMARK   80  A    between atoms: _197  and  _198
REMARK   81  A    between atoms: _197  and  _200
REMARK   82  A    between atoms: _200  and  _201
REMARK   83  A    between atoms: _203  and  _205
REMARK   84  A    between atoms: _205  and  _206
REMARK   85  A    between atoms: _209  and  _211
REMARK   86  A    between atoms: _211  and  _212
REMARK   87  A    between atoms: _211  and  _214
REMARK   88  A    between atoms: _214  and  _215
REMARK   89  A    between atoms: _218  and  _220
REMARK   90  A    between atoms: _220  and  _221
REMARK   91  A    between atoms: _220  and  _223
REMARK   92  A    between atoms: _223  and  _224
REMARK   93  A    between atoms: _227  and  _229
REMARK   94  A    between atoms: _229  and  _230
REMARK   95  A    between atoms: _229  and  _232
REMARK   96  A    between atoms: _232  and  _233
REMARK   97  A    between atoms: _236  and  _238
REMARK   98  A    between atoms: _238  and  _239
REMARK   99  A    between atoms: _242  and  _244
REMARK  100  A    between atoms: _244  and  _245
REMARK  101  A    between atoms: _244  and  _247
REMARK  102  A    between atoms: _247  and  _248
REMARK  103  A    between atoms: _253  and  _254
REMARK  104  A    between atoms: _256  and  _258
REMARK  105  A    between atoms: _258  and  _259
REMARK  106  A    between atoms: _258  and  _261
REMARK  107  A    between atoms: _261  and  _262
REMARK  108  A    between atoms: _267  and  _269
REMARK  109  A    between atoms: _269  and  _270
REMARK  110  A    between atoms: _269  and  _272
REMARK  111  A    between atoms: _272  and  _273
REMARK  112  A    between atoms: _276  and  _278
REMARK  113  A    between atoms: _278  and  _279
REMARK  114  A    between atoms: _278  and  _281
REMARK  115  A    between atoms: _281  and  _282
REMARK  116  A    between atoms: _288  and  _290
REMARK  117  A    between atoms: _290  and  _291
REMARK  118  A    between atoms: _293  and  _295
REMARK  119  A    between atoms: _295  and  _296
REMARK  120  A    between atoms: _295  and  _298
REMARK  121  A    between atoms: _298  and  _299
REMARK  122  A    between atoms: _299  and  _300
REMARK  123  A    between atoms: _300  and  _301
REMARK  124  A    between atoms: _301  and  _302
REMARK  125  A    between atoms: _306  and  _308
REMARK  126  A    between atoms: _308  and  _309
REMARK  127  A    between atoms: _308  and  _311
REMARK  128  A    between atoms: _311  and  _312
REMARK  129  A    between atoms: _317  and  _318
REMARK  130  A    between atoms: _320  and  _322
REMARK  131  A    between atoms: _322  and  _323
REMARK  132  A    between atoms: _322  and  _325
REMARK  133  A    between atoms: _325  and  _326
REMARK  134  A    between atoms: _329  and  _331
REMARK  135  A    between atoms: _331  and  _332
REMARK  136  A    between atoms: _331  and  _334
REMARK  137  A    between atoms: _334  and  _335
REMARK  138  A    between atoms: _340  and  _341
REMARK  139  A    between atoms: _343  and  _345
REMARK  140  A    between atoms: _345  and  _346
REMARK  141  A    between atoms: _345  and  _348
REMARK  142  A    between atoms: _348  and  _349
REMARK  143  A    between atoms: _354  and  _355
REMARK  144  A    between atoms: _357  and  _359
REMARK  145  A    between atoms: _359  and  _360
REMARK  146  A    between atoms: _359  and  _362
REMARK  147  A    between atoms: _362  and  _363
REMARK  148  A    between atoms: _368  and  _369
REMARK  149  A    between atoms: _371  and  _373
REMARK  150  A    between atoms: _373  and  _374
REMARK  151  A    between atoms: _373  and  _376
REMARK  152  A    between atoms: _376  and  _377
REMARK  153  A    between atoms: _377  and  _378
REMARK  154  A    between atoms: _381  and  _383
REMARK  155  A    between atoms: _383  and  _384
REMARK  156  A    between atoms: _383  and  _386
REMARK  157  A    between atoms: _386  and  _387
REMARK  158  A    between atoms: _389  and  _391
REMARK  159  A    between atoms: _391  and  _392
REMARK  160  A    between atoms: _391  and  _394
REMARK  161  A    between atoms: _394  and  _395
REMARK  162  A    between atoms: _395  and  _505
REMARK  163  A    between atoms: _396  and  _398
REMARK  164  A    between atoms: _398  and  _399
REMARK  165  A    between atoms: _398  and  _401
REMARK  166  A    between atoms: _401  and  _402
REMARK  167  A    between atoms: _402  and  _403
REMARK  168  A    between atoms: _408  and  _410
REMARK  169  A    between atoms: _410  and  _411
REMARK  170  A    between atoms: _413  and  _415
REMARK  171  A    between atoms: _415  and  _416
REMARK  172  A    between atoms: _415  and  _418
REMARK  173  A    between atoms: _418  and  _419
REMARK  174  A    between atoms: _422  and  _424
REMARK  175  A    between atoms: _424  and  _425
REMARK  176  A    between atoms: _424  and  _427
REMARK  177  A    between atoms: _427  and  _428
REMARK  178  A    between atoms: _430  and  _432
REMARK  179  A    between atoms: _432  and  _433
REMARK  180  A    between atoms: _435  and  _437
REMARK  181  A    between atoms: _437  and  _438
REMARK  182  A    between atoms: _440  and  _442
REMARK  183  A    between atoms: _442  and  _443
REMARK  184  A    between atoms: _442  and  _445
REMARK  185  A    between atoms: _448  and  _450
REMARK  186  A    between atoms: _450  and  _451
REMARK  187  A    between atoms: _450  and  _453
REMARK  188  A    between atoms: _453  and  _454
REMARK  189  A    between atoms: _456  and  _458
REMARK  190  A    between atoms: _458  and  _459
REMARK  191  A    between atoms: _458  and  _461
REMARK  192  A    between atoms: _461  and  _462
REMARK  193  A    between atoms: _472  and  _474
REMARK  194  A    between atoms: _474  and  _475
REMARK  195  A    between atoms: _477  and  _479
REMARK  196  A    between atoms: _479  and  _480
REMARK  197  A    between atoms: _479  and  _482
REMARK  198  A    between atoms: _482  and  _483
REMARK  199  A    between atoms: _483  and  _484
REMARK  200  A    between atoms: _484  and  _485
REMARK  201  A    between atoms: _494  and  _496
REMARK  202  A    between atoms: _496  and  _497
REMARK  203  A    between atoms: _499  and  _501
REMARK  204  A    between atoms: _501  and  _502
REMARK  205  A    between atoms: _501  and  _504
REMARK  206  A    between atoms: _504  and  _505
REMARK  207  A    between atoms: _506  and  _508
REMARK  208  A    between atoms: _508  and  _509
REMARK  209  A    between atoms: _508  and  _511
REMARK  210  A    between atoms: _511  and  _512
REMARK  211  A    between atoms: _515  and  _517
REMARK  212  A    between atoms: _517  and  _518
REMARK  213  A    between atoms: _517  and  _520
REMARK  214  A    between atoms: _520  and  _521
REMARK  215  A    between atoms: _521  and  _522
REMARK  216  A    between atoms: _522  and  _523
REMARK  217  A    between atoms: _523  and  _524
REMARK  218  A    between atoms: _529  and  _530
REMARK  219  A    between atoms: _535  and  _537
REMARK  220  A    between atoms: _537  and  _538
REMARK  221  A    between atoms: _537  and  _540
REMARK                            x       y       z     vdW  Elec       q    Type
REMARK                         _______ _______ _______ _____ _____    ______ ____
ROOT
ATOM      1  CG  TYR A   1       0.946 -19.319 -11.970  0.00  0.00    -0.020 A 
ATOM      2  CD2 TYR A   1       2.211 -18.755 -11.867  0.00  0.00    -0.001 A 
ATOM      3  CE2 TYR A   1       3.093 -18.793 -12.926  0.00  0.00    +0.036 A 
ATOM      4  CZ  TYR A   1       2.707 -19.381 -14.113  0.00  0.00    +0.134 A 
ATOM      5  CE1 TYR A   1       1.452 -19.941 -14.244  0.00  0.00    +0.036 A 
ATOM      6  CD1 TYR A   1       0.577 -19.900 -13.181  0.00  0.00    -0.001 A 
ENDROOT
BRANCH   4   7
ATOM      7  OH  TYR A   1       3.572 -19.420 -15.171  0.00  0.00    -0.506 OA
ATOM      8  HH  TYR A   1       3.817 -18.496 -15.430  0.00  0.00    +0.292 HD
ENDBRANCH   4   7
BRANCH   1   9
ATOM      9  CB  TYR A   1      -0.011 -19.264 -10.820  0.00  0.00    +0.051 C 
BRANCH   9  10
ATOM     10  CA  TYR A   1      -0.943 -18.051 -10.891  0.00  0.00    +0.137 C 
BRANCH  10  11
ATOM     11  N   TYR A   1      -0.171 -16.807 -10.804  0.00  0.00    -0.239 NA
ATOM     12  H   TYR A   1       0.458 -16.657  -9.989  0.00  0.00    +0.142 HD
ENDBRANCH  10  11
BRANCH  10  13
ATOM     13  C   TYR A   1      -2.036 -18.190  -9.844  0.00  0.00    +0.224 C 
ATOM     14  O   TYR A   1      -1.964 -17.645  -8.734  0.00  0.00    -0.287 OA
ENDBRANCH  10  13
ENDBRANCH   9  10
ENDBRANCH   1   9
TORSDOF 5
REMARK  Name = ../refined-set-2016/4zhm/4zhm_pocket.pdb
REMARK  221 active torsions:
REMARK  status: ('A' for Active; 'I' for Inactive)
REMARK    1  A    between atoms: _1  and  _3
REMARK    2  A    between atoms: _3  and  _4
REMARK    3  A    between atoms: _3  and  _6
REMARK    4  A    between atoms: _6  and  _7
REMARK    5  A    between atoms: _10  and  _12
REMARK    6  A    between atoms: _12  and  _13
REMARK    7  A    between atoms: _12  and  _15
REMARK    8  A    between atoms: _15  and  _16
REMARK    9  A    between atoms: _16  and  _17
REMARK   10  A    between atoms: _17  and  _18
REMARK   11  A    between atoms: _27  and  _29
REMARK   12  A    between atoms: _29  and  _30
REMARK   13  A    between atoms: _29  and  _32
REMARK   14  A    between atoms: _32  and  _33
REMARK   15  A    between atoms: _38  and  _40
REMARK   16  A    between atoms: _40  and  _41
REMARK   17  A    between atoms: _40  and  _43
REMARK   18  A    between atoms: _43  and  _44
REMARK   19  A    between atoms: _47  and  _49
REMARK   20  A    between atoms: _49  and  _50
REMARK   21  A    between atoms: _49  and  _52
REMARK   22  A    between atoms: _52  and  _53
REMARK   23  A    between atoms: _58  and  _59
REMARK   24  A    between atoms: _61  and  _63
REMARK   25  A    between atoms: _63  and  _64
REMARK   26  A    between atoms: _63  and  _66
REMARK   27  A    between atoms: _69  and  _71
REMARK   28  A    between atoms: _71  and  _72
REMARK   29  A    between atoms: _71  and  _74
REMARK   30  A    between atoms: _74  and  _75
REMARK   31  A    between atoms: _75  and  _113
REMARK   32  A    between atoms: _76  and  _78
REMARK   33  A    between atoms: _78  and  _79
REMARK   34  A    between atoms: _81  and  _83
REMARK   35  A    between atoms: _83  and  _84
REMARK   36  A    between atoms: _87  and  _89
REMARK   37  A    between atoms: _89  and  _90
REMARK   38  A    between atoms: _89  and  _92
REMARK   39  A    between atoms: _92  and  _93
REMARK   40  A    between atoms: _96  and  _98
REMARK   41  A    between atoms: _98  and  _99
REMARK   42  A    between atoms: _98  and  _101
REMARK   43  A    between atoms: _101  and  _102
REMARK   44  A    between atoms: _107  and  _109
REMARK   45  A    between atoms: _109  and  _110
REMARK   46  A    between atoms: _109  and  _112
REMARK   47  A    between atoms: _112  and  _113
REMARK   48  A    between atoms: _114  and  _116
REMARK   49  A    between atoms: _116  and  _117
REMARK   50  A    between atoms: _116  and  _119
REMARK   51  A    between atoms: _119  and  _120
REMARK   52  A    between atoms: _126  and  _128
REMARK   53  A    between atoms: _128  and  _129
REMARK   54  A    between atoms: _128  and  _131
REMARK   55  A    between atoms: _131  and  _132
REMARK   56  A    between atoms: _135  and  _137
REMARK   57  A    between atoms: _137  and  _138
REMARK   58  A    between atoms: _137  and  _140
REMARK   59  A    between atoms: _140  and  _141
REMARK   60  A    between atoms: _144  and  _146
REMARK   61  A    between atoms: _146  and  _147
REMARK   62  A    between atoms: _146  and  _149
REMARK   63  A    between atoms: _149  and  _150
REMARK   64  A    between atoms: _155  and  _156
REMARK   65  A    between atoms: _158  and  _160
REMARK   66  A    between atoms: _160  and  _161
REMARK   67  A    between atoms: _160  and  _163
REMARK   68  A    between atoms: _163  and  _164
REMARK   69  A    between atoms: _169  and  _170
REMARK   70  A    between atoms: _172  and  _174
REMARK   71  A    between atoms: _174  and  _175
REMARK   72  A    between atoms: _174  and  _177
REMARK   73  A    between atoms: _177  and  _178
REMARK   74  A    between atoms: _181  and  _183
REMARK   75  A    between atoms: _183  and  _184
REMARK   76  A    between atoms: _183  and  _186
REMARK   77  A    between atoms: _186  and  _187
REMARK   78  A    between atoms: _192  and  _193
REMARK   79  A    between atoms: _195  and  _197
REMARK   80  A    between atoms: _197  and  _198
REMARK   81  A    between atoms: _197  and  _200
REMARK   82  A    between atoms: _200  and  _201
REMARK   83  A    between atoms: _203  and  _205
REMARK   84  A    between atoms: _205  and  _206
REMARK   85  A    between atoms: _209  and  _211
REMARK   86  A    between atoms: _211  and  _212
REMARK   87  A    between atoms: _211  and  _214
REMARK   88  A    between atoms: _214  and  _215
REMARK   89  A    between atoms: _218  and  _220
REMARK   90  A    between atoms: _220  and  _221
REMARK   91  A    between atoms: _220  and  _223
REMARK   92  A    between atoms: _223  and  _224
REMARK   93  A    between atoms: _227  and  _229
REMARK   94  A    between atoms: _229  and  _230
REMARK   95  A    between atoms: _229  and  _232
REMARK   96  A    between atoms: _232  and  _233
REMARK   97  A    between atoms: _236  and  _238
REMARK   98  A    between atoms: _238  and  _239
REMARK   99  A    between atoms: _242  and  _244
REMARK  100  A    between atoms: _244  and  _245
REMARK  101  A    between atoms: _244  and  _247
REMARK  102  A    between atoms: _247  and  _248
REMARK  103  A    between atoms: _253  and  _254
REMARK  104  A    between atoms: _256  and  _258
REMARK  105  A    between atoms: _258  and  _259
REMARK  106  A    between atoms: _258  and  _261
REMARK  107  A    between atoms: _261  and  _262
REMARK  108  A    between atoms: _267  and  _269
REMARK  109  A    between atoms: _269  and  _270
REMARK  110  A    between atoms: _269  and  _272
REMARK  111  A    between atoms: _272  and  _273
REMARK  112  A    between atoms: _276  and  _278
REMARK  113  A    between atoms: _278  and  _279
REMARK  114  A    between atoms: _278  and  _281
REMARK  115  A    between atoms: _281  and  _282
REMARK  116  A    between atoms: _288  and  _290
REMARK  117  A    between atoms: _290  and  _291
REMARK  118  A    between atoms: _293  and  _295
REMARK  119  A    between atoms: _295  and  _296
REMARK  120  A    between atoms: _295  and  _298
REMARK  121  A    between atoms: _298  and  _299
REMARK  122  A    between atoms: _299  and  _300
REMARK  123  A    between atoms: _300  and  _301
REMARK  124  A    between atoms: _301  and  _302
REMARK  125  A    between atoms: _306  and  _308
REMARK  126  A    between atoms: _308  and  _309
REMARK  127  A    between atoms: _308  and  _311
REMARK  128  A    between atoms: _311  and  _312
REMARK  129  A    between atoms: _317  and  _318
REMARK  130  A    between atoms: _320  and  _322
REMARK  131  A    between atoms: _322  and  _323
REMARK  132  A    between atoms: _322  and  _325
REMARK  133  A    between atoms: _325  and  _326
REMARK  134  A    between atoms: _329  and  _331
REMARK  135  A    between atoms: _331  and  _332
REMARK  136  A    between atoms: _331  and  _334
REMARK  137  A    between atoms: _334  and  _335
REMARK  138  A    between atoms: _340  and  _341
REMARK  139  A    between atoms: _343  and  _345
REMARK  140  A    between atoms: _345  and  _346
REMARK  141  A    between atoms: _345  and  _348
REMARK  142  A    between atoms: _348  and  _349
REMARK  143  A    between atoms: _354  and  _355
REMARK  144  A    between atoms: _357  and  _359
REMARK  145  A    between atoms: _359  and  _360
REMARK  146  A    between atoms: _359  and  _362
REMARK  147  A    between atoms: _362  and  _363
REMARK  148  A    between atoms: _368  and  _369
REMARK  149  A    between atoms: _371  and  _373
REMARK  150  A    between atoms: _373  and  _374
REMARK  151  A    between atoms: _373  and  _376
REMARK  152  A    between atoms: _376  and  _377
REMARK  153  A    between atoms: _377  and  _378
REMARK  154  A    between atoms: _381  and  _383
REMARK  155  A    between atoms: _383  and  _384
REMARK  156  A    between atoms: _383  and  _386
REMARK  157  A    between atoms: _386  and  _387
REMARK  158  A    between atoms: _389  and  _391
REMARK  159  A    between atoms: _391  and  _392
REMARK  160  A    between atoms: _391  and  _394
REMARK  161  A    between atoms: _394  and  _395
REMARK  162  A    between atoms: _395  and  _505
REMARK  163  A    between atoms: _396  and  _398
REMARK  164  A    between atoms: _398  and  _399
REMARK  165  A    between atoms: _398  and  _401
REMARK  166  A    between atoms: _401  and  _402
REMARK  167  A    between atoms: _402  and  _403
REMARK  168  A    between atoms: _408  and  _410
REMARK  169  A    between atoms: _410  and  _411
REMARK  170  A    between atoms: _413  and  _415
REMARK  171  A    between atoms: _415  and  _416
REMARK  172  A    between atoms: _415  and  _418
REMARK  173  A    between atoms: _418  and  _419
REMARK  174  A    between atoms: _422  and  _424
REMARK  175  A    between atoms: _424  and  _425
REMARK  176  A    between atoms: _424  and  _427
REMARK  177  A    between atoms: _427  and  _428
REMARK  178  A    between atoms: _430  and  _432
REMARK  179  A    between atoms: _432  and  _433
REMARK  180  A    between atoms: _435  and  _437
REMARK  181  A    between atoms: _437  and  _438
REMARK  182  A    between atoms: _440  and  _442
REMARK  183  A    between atoms: _442  and  _443
REMARK  184  A    between atoms: _442  and  _445
REMARK  185  A    between atoms: _448  and  _450
REMARK  186  A    between atoms: _450  and  _451
REMARK  187  A    between atoms: _450  and  _453
REMARK  188  A    between atoms: _453  and  _454
REMARK  189  A    between atoms: _456  and  _458
REMARK  190  A    between atoms: _458  and  _459
REMARK  191  A    between atoms: _458  and  _461
REMARK  192  A    between atoms: _461  and  _462
REMARK  193  A    between atoms: _472  and  _474
REMARK  194  A    between atoms: _474  and  _475
REMARK  195  A    between atoms: _477  and  _479
REMARK  196  A    between atoms: _479  and  _480
REMARK  197  A    between atoms: _479  and  _482
REMARK  198  A    between atoms: _482  and  _483
REMARK  199  A    between atoms: _483  and  _484
REMARK  200  A    between atoms: _484  and  _485
REMARK  201  A    between atoms: _494  and  _496
REMARK  202  A    between atoms: _496  and  _497
REMARK  203  A    between atoms: _499  and  _501
REMARK  204  A    between atoms: _501  and  _502
REMARK  205  A    between atoms: _501  and  _504
REMARK  206  A    between atoms: _504  and  _505
REMARK  207  A    between atoms: _506  and  _508
REMARK  208  A    between atoms: _508  and  _509
REMARK  209  A    between atoms: _508  and  _511
REMARK  210  A    between atoms: _511  and  _512
REMARK  211  A    between atoms: _515  and  _517
REMARK  212  A    between atoms: _517  and  _518
REMARK  213  A    between atoms: _517  and  _520
REMARK  214  A    between atoms: _520  and  _521
REMARK  215  A    between atoms: _521  and  _522
REMARK  216  A    between atoms: _522  and  _523
REMARK  217  A    between atoms: _523  and  _524
REMARK  218  A    between atoms: _529  and  _530
REMARK  219  A    between atoms: _535  and  _537
REMARK  220  A    between atoms: _537  and  _538
REMARK  221  A    between atoms: _537  and  _540
REMARK                            x       y       z     vdW  Elec       q    Type
REMARK                         _______ _______ _______ _____ _____    ______ ____
ROOT
ATOM      1  CA  LEU A   1     -12.888 -24.815 -17.258  0.00  0.00    +0.133 C 
ENDROOT
BRANCH   1   2
ATOM      2  N   LEU A   1     -14.069 -25.555 -16.862  0.00  0.00    -0.239 NA
ATOM      3  H   LEU A   1     -14.704 -25.909 -17.606  0.00  0.00    +0.142 HD
ENDBRANCH   1   2
BRANCH   1   4
ATOM      4  C   LEU A   1     -13.010 -23.305 -17.062  0.00  0.00    +0.224 C 
ATOM      5  O   LEU A   1     -12.105 -22.688 -16.504  0.00  0.00    -0.287 OA
ENDBRANCH   1   4
BRANCH   1   6
ATOM      6  CB  LEU A   1     -12.565 -25.099 -18.726  0.00  0.00    +0.025 C 
BRANCH   6   7
ATOM      7  CG  LEU A   1     -11.217 -24.563 -19.230  0.00  0.00    +0.002 C 
ATOM      8  CD2 LEU A   1     -10.066 -25.027 -18.336  0.00  0.00    +0.000 C 
ATOM      9  CD1 LEU A   1     -10.965 -24.961 -20.678  0.00  0.00    +0.000 C 
ENDBRANCH   6   7
ENDBRANCH   1   6
TORSDOF 4
REMARK  Name = ../refined-set-2016/4zhm/4zhm_pocket.pdb
REMARK  221 active torsions:
REMARK  status: ('A' for Active; 'I' for Inactive)
REMARK    1  A    between atoms: _1  and  _3
REMARK    2  A    between atoms: _3  and  _4
REMARK    3  A    between atoms: _3  and  _6
REMARK    4  A    between atoms: _6  and  _7
REMARK    5  A    between atoms: _10  and  _12
REMARK    6  A    between atoms: _12  and  _13
REMARK    7  A    between atoms: _12  and  _15
REMARK    8  A    between atoms: _15  and  _16
REMARK    9  A    between atoms: _16  and  _17
REMARK   10  A    between atoms: _17  and  _18
REMARK   11  A    between atoms: _27  and  _29
REMARK   12  A    between atoms: _29  and  _30
REMARK   13  A    between atoms: _29  and  _32
REMARK   14  A    between atoms: _32  and  _33
REMARK   15  A    between atoms: _38  and  _40
REMARK   16  A    between atoms: _40  and  _41
REMARK   17  A    between atoms: _40  and  _43
REMARK   18  A    between atoms: _43  and  _44
REMARK   19  A    between atoms: _47  and  _49
REMARK   20  A    between atoms: _49  and  _50
REMARK   21  A    between atoms: _49  and  _52
REMARK   22  A    between atoms: _52  and  _53
REMARK   23  A    between atoms: _58  and  _59
REMARK   24  A    between atoms: _61  and  _63
REMARK   25  A    between atoms: _63  and  _64
REMARK   26  A    between atoms: _63  and  _66
REMARK   27  A    between atoms: _69  and  _71
REMARK   28  A    between atoms: _71  and  _72
REMARK   29  A    between atoms: _71  and  _74
REMARK   30  A    between atoms: _74  and  _75
REMARK   31  A    between atoms: _75  and  _113
REMARK   32  A    between atoms: _76  and  _78
REMARK   33  A    between atoms: _78  and  _79
REMARK   34  A    between atoms: _81  and  _83
REMARK   35  A    between atoms: _83  and  _84
REMARK   36  A    between atoms: _87  and  _89
REMARK   37  A    between atoms: _89  and  _90
REMARK   38  A    between atoms: _89  and  _92
REMARK   39  A    between atoms: _92  and  _93
REMARK   40  A    between atoms: _96  and  _98
REMARK   41  A    between atoms: _98  and  _99
REMARK   42  A    between atoms: _98  and  _101
REMARK   43  A    between atoms: _101  and  _102
REMARK   44  A    between atoms: _107  and  _109
REMARK   45  A    between atoms: _109  and  _110
REMARK   46  A    between atoms: _109  and  _112
REMARK   47  A    between atoms: _112  and  _113
REMARK   48  A    between atoms: _114  and  _116
REMARK   49  A    between atoms: _116  and  _117
REMARK   50  A    between atoms: _116  and  _119
REMARK   51  A    between atoms: _119  and  _120
REMARK   52  A    between atoms: _126  and  _128
REMARK   53  A    between atoms: _128  and  _129
REMARK   54  A    between atoms: _128  and  _131
REMARK   55  A    between atoms: _131  and  _132
REMARK   56  A    between atoms: _135  and  _137
REMARK   57  A    between atoms: _137  and  _138
REMARK   58  A    between atoms: _137  and  _140
REMARK   59  A    between atoms: _140  and  _141
REMARK   60  A    between atoms: _144  and  _146
REMARK   61  A    between atoms: _146  and  _147
REMARK   62  A    between atoms: _146  and  _149
REMARK   63  A    between atoms: _149  and  _150
REMARK   64  A    between atoms: _155  and  _156
REMARK   65  A    between atoms: _158  and  _160
REMARK   66  A    between atoms: _160  and  _161
REMARK   67  A    between atoms: _160  and  _163
REMARK   68  A    between atoms: _163  and  _164
REMARK   69  A    between atoms: _169  and  _170
REMARK   70  A    between atoms: _172  and  _174
REMARK   71  A    between atoms: _174  and  _175
REMARK   72  A    between atoms: _174  and  _177
REMARK   73  A    between atoms: _177  and  _178
REMARK   74  A    between atoms: _181  and  _183
REMARK   75  A    between atoms: _183  and  _184
REMARK   76  A    between atoms: _183  and  _186
REMARK   77  A    between atoms: _186  and  _187
REMARK   78  A    between atoms: _192  and  _193
REMARK   79  A    between atoms: _195  and  _197
REMARK   80  A    between atoms: _197  and  _198
REMARK   81  A    between atoms: _197  and  _200
REMARK   82  A    between atoms: _200  and  _201
REMARK   83  A    between atoms: _203  and  _205
REMARK   84  A    between atoms: _205  and  _206
REMARK   85  A    between atoms: _209  and  _211
REMARK   86  A    between atoms: _211  and  _212
REMARK   87  A    between atoms: _211  and  _214
REMARK   88  A    between atoms: _214  and  _215
REMARK   89  A    between atoms: _218  and  _220
REMARK   90  A    between atoms: _220  and  _221
REMARK   91  A    between atoms: _220  and  _223
REMARK   92  A    between atoms: _223  and  _224
REMARK   93  A    between atoms: _227  and  _229
REMARK   94  A    between atoms: _229  and  _230
REMARK   95  A    between atoms: _229  and  _232
REMARK   96  A    between atoms: _232  and  _233
REMARK   97  A    between atoms: _236  and  _238
REMARK   98  A    between atoms: _238  and  _239
REMARK   99  A    between atoms: _242  and  _244
REMARK  100  A    between atoms: _244  and  _245
REMARK  101  A    between atoms: _244  and  _247
REMARK  102  A    between atoms: _247  and  _248
REMARK  103  A    between atoms: _253  and  _254
REMARK  104  A    between atoms: _256  and  _258
REMARK  105  A    between atoms: _258  and  _259
REMARK  106  A    between atoms: _258  and  _261
REMARK  107  A    between atoms: _261  and  _262
REMARK  108  A    between atoms: _267  and  _269
REMARK  109  A    between atoms: _269  and  _270
REMARK  110  A    between atoms: _269  and  _272
REMARK  111  A    between atoms: _272  and  _273
REMARK  112  A    between atoms: _276  and  _278
REMARK  113  A    between atoms: _278  and  _279
REMARK  114  A    between atoms: _278  and  _281
REMARK  115  A    between atoms: _281  and  _282
REMARK  116  A    between atoms: _288  and  _290
REMARK  117  A    between atoms: _290  and  _291
REMARK  118  A    between atoms: _293  and  _295
REMARK  119  A    between atoms: _295  and  _296
REMARK  120  A    between atoms: _295  and  _298
REMARK  121  A    between atoms: _298  and  _299
REMARK  122  A    between atoms: _299  and  _300
REMARK  123  A    between atoms: _300  and  _301
REMARK  124  A    between atoms: _301  and  _302
REMARK  125  A    between atoms: _306  and  _308
REMARK  126  A    between atoms: _308  and  _309
REMARK  127  A    between atoms: _308  and  _311
REMARK  128  A    between atoms: _311  and  _312
REMARK  129  A    between atoms: _317  and  _318
REMARK  130  A    between atoms: _320  and  _322
REMARK  131  A    between atoms: _322  and  _323
REMARK  132  A    between atoms: _322  and  _325
REMARK  133  A    between atoms: _325  and  _326
REMARK  134  A    between atoms: _329  and  _331
REMARK  135  A    between atoms: _331  and  _332
REMARK  136  A    between atoms: _331  and  _334
REMARK  137  A    between atoms: _334  and  _335
REMARK  138  A    between atoms: _340  and  _341
REMARK  139  A    between atoms: _343  and  _345
REMARK  140  A    between atoms: _345  and  _346
REMARK  141  A    between atoms: _345  and  _348
REMARK  142  A    between atoms: _348  and  _349
REMARK  143  A    between atoms: _354  and  _355
REMARK  144  A    between atoms: _357  and  _359
REMARK  145  A    between atoms: _359  and  _360
REMARK  146  A    between atoms: _359  and  _362
REMARK  147  A    between atoms: _362  and  _363
REMARK  148  A    between atoms: _368  and  _369
REMARK  149  A    between atoms: _371  and  _373
REMARK  150  A    between atoms: _373  and  _374
REMARK  151  A    between atoms: _373  and  _376
REMARK  152  A    between atoms: _376  and  _377
REMARK  153  A    between atoms: _377  and  _378
REMARK  154  A    between atoms: _381  and  _383
REMARK  155  A    between atoms: _383  and  _384
REMARK  156  A    between atoms: _383  and  _386
REMARK  157  A    between atoms: _386  and  _387
REMARK  158  A    between atoms: _389  and  _391
REMARK  159  A    between atoms: _391  and  _392
REMARK  160  A    between atoms: _391  and  _394
REMARK  161  A    between atoms: _394  and  _395
REMARK  162  A    between atoms: _395  and  _505
REMARK  163  A    between atoms: _396  and  _398
REMARK  164  A    between atoms: _398  and  _399
REMARK  165  A    between atoms: _398  and  _401
REMARK  166  A    between atoms: _401  and  _402
REMARK  167  A    between atoms: _402  and  _403
REMARK  168  A    between atoms: _408  and  _410
REMARK  169  A    between atoms: _410  and  _411
REMARK  170  A    between atoms: _413  and  _415
REMARK  171  A    between atoms: _415  and  _416
REMARK  172  A    between atoms: _415  and  _418
REMARK  173  A    between atoms: _418  and  _419
REMARK  174  A    between atoms: _422  and  _424
REMARK  175  A    between atoms: _424  and  _425
REMARK  176  A    between atoms: _424  and  _427
REMARK  177  A    between atoms: _427  and  _428
REMARK  178  A    between atoms: _430  and  _432
REMARK  179  A    between atoms: _432  and  _433
REMARK  180  A    between atoms: _435  and  _437
REMARK  181  A    between atoms: _437  and  _438
REMARK  182  A    between atoms: _440  and  _442
REMARK  183  A    between atoms: _442  and  _443
REMARK  184  A    between atoms: _442  and  _445
REMARK  185  A    between atoms: _448  and  _450
REMARK  186  A    between atoms: _450  and  _451
REMARK  187  A    between atoms: _450  and  _453
REMARK  188  A    between atoms: _453  and  _454
REMARK  189  A    between atoms: _456  and  _458
REMARK  190  A    between atoms: _458  and  _459
REMARK  191  A    between atoms: _458  and  _461
REMARK  192  A    between atoms: _461  and  _462
REMARK  193  A    between atoms: _472  and  _474
REMARK  194  A    between atoms: _474  and  _475
REMARK  195  A    between atoms: _477  and  _479
REMARK  196  A    between atoms: _479  and  _480
REMARK  197  A    between atoms: _479  and  _482
REMARK  198  A    between atoms: _482  and  _483
REMARK  199  A    between atoms: _483  and  _484
REMARK  200  A    between atoms: _484  and  _485
REMARK  201  A    between atoms: _494  and  _496
REMARK  202  A    between atoms: _496  and  _497
REMARK  203  A    between atoms: _499  and  _501
REMARK  204  A    between atoms: _501  and  _502
REMARK  205  A    between atoms: _501  and  _504
REMARK  206  A    between atoms: _504  and  _505
REMARK  207  A    between atoms: _506  and  _508
REMARK  208  A    between atoms: _508  and  _509
REMARK  209  A    between atoms: _508  and  _511
REMARK  210  A    between atoms: _511  and  _512
REMARK  211  A    between atoms: _515  and  _517
REMARK  212  A    between atoms: _517  and  _518
REMARK  213  A    between atoms: _517  and  _520
REMARK  214  A    between atoms: _520  and  _521
REMARK  215  A    between atoms: _521  and  _522
REMARK  216  A    between atoms: _522  and  _523
REMARK  217  A    between atoms: _523  and  _524
REMARK  218  A    between atoms: _529  and  _530
REMARK  219  A    between atoms: _535  and  _537
REMARK  220  A    between atoms: _537  and  _538
REMARK  221  A    between atoms: _537  and  _540
REMARK                            x       y       z     vdW  Elec       q    Type
REMARK                         _______ _______ _______ _____ _____    ______ ____
ROOT
ATOM      1  CA  THR A   5      13.687 -31.738 -29.328  0.00  0.00    +0.176 C 
ENDROOT
BRANCH   1   2
ATOM      2  C   THR A   5      12.283 -32.352 -29.405  0.00  0.00    +0.243 C 
ATOM      3  N   LEU A   6      12.123 -33.555 -28.860  0.00  0.00    -0.297 N 
ATOM      4  H   LEU A   6      12.978 -34.047 -28.531  0.00  0.00    +0.150 HD
ATOM      5  O   THR A   5      11.393 -31.739 -29.961  0.00  0.00    -0.273 OA
BRANCH   3   6
ATOM      6  CA  LEU A   6      10.843 -34.243 -28.685  0.00  0.00    +0.149 C 
BRANCH   6   7
ATOM      7  C   LEU A   6      10.250 -34.154 -27.282  0.00  0.00    +0.241 C 
ATOM      8  N   ALA A   7      11.075 -34.450 -26.301  0.00  0.00    -0.297 N 
ATOM      9  H   ALA A   7      12.091 -34.466 -26.523  0.00  0.00    +0.150 HD
ATOM     10  O   LEU A   6       9.123 -33.815 -27.103  0.00  0.00    -0.273 OA
BRANCH   8  11
ATOM     11  CA  ALA A   7      10.690 -34.756 -24.938  0.00  0.00    +0.149 C 
ATOM     12  CB  ALA A   7      11.303 -36.062 -24.543  0.00  0.00    +0.031 C 
BRANCH  11  13
ATOM     13  C   ALA A   7      11.094 -33.699 -23.901  0.00  0.00    +0.241 C 
ATOM     14  N   TYR A   8      10.469 -33.765 -22.737  0.00  0.00    -0.297 N 
ATOM     15  H   TYR A   8       9.639 -34.387 -22.658  0.00  0.00    +0.150 HD
ATOM     16  O   ALA A   7      11.934 -32.859 -24.158  0.00  0.00    -0.273 OA
BRANCH  14  17
ATOM     17  CA  TYR A   8      10.877 -33.023 -21.578  0.00  0.00    +0.153 C 
BRANCH  17  18
ATOM     18  C   TYR A   8      11.505 -33.971 -20.606  0.00  0.00    +0.241 C 
ATOM     19  N   HIS A   9      12.449 -33.484 -19.825  0.00  0.00    -0.298 N 
ATOM     20  H   HIS A   9      12.739 -32.495 -19.964  0.00  0.00    +0.150 HD
ATOM     21  O   TYR A   8      11.134 -35.097 -20.549  0.00  0.00    -0.273 OA
BRANCH  19  22
ATOM     22  CA  HIS A   9      13.107 -34.251 -18.780  0.00  0.00    +0.143 C 
BRANCH  22  23
ATOM     23  C   HIS A   9      12.931 -33.603 -17.439  0.00  0.00    +0.227 C 
ATOM     24  O   HIS A   9      12.889 -32.411 -17.342  0.00  0.00    -0.286 OA
ENDBRANCH  22  23
BRANCH  22  25
ATOM     25  CB  HIS A   9      14.618 -34.387 -19.051  0.00  0.00    +0.075 C 
BRANCH  25  26
ATOM     26  CG  HIS A   9      14.933 -35.199 -20.256  0.00  0.00    +0.082 A 
ATOM     27  CD2 HIS A   9      15.177 -36.512 -20.403  0.00  0.00    +0.115 A 
ATOM     28  NE2 HIS A   9      15.350 -36.740 -21.736  0.00  0.00    -0.221 NA
ATOM     29  CE1 HIS A   9      15.237 -35.605 -22.387  0.00  0.00    +0.199 A 
ATOM     30  ND1 HIS A   9      14.982 -34.660 -21.513  0.00  0.00    -0.227 NA
ENDBRANCH  25  26
ENDBRANCH  22  25
ENDBRANCH  19  22
ENDBRANCH  17  18
BRANCH  17  31
ATOM     31  CB  TYR A   8       9.711 -32.376 -20.853  0.00  0.00    +0.055 C 
BRANCH  31  32
ATOM     32  CG  TYR A   8       8.878 -31.377 -21.573  0.00  0.00    -0.020 A 
ATOM     33  CD2 TYR A   8       9.328 -30.111 -21.809  0.00  0.00    -0.001 A 
ATOM     34  CE2 TYR A   8       8.551 -29.199 -22.435  0.00  0.00    +0.036 A 
ATOM     35  CZ  TYR A   8       7.298 -29.527 -22.791  0.00  0.00    +0.134 A 
ATOM     36  CE1 TYR A   8       6.822 -30.773 -22.543  0.00  0.00    +0.036 A 
ATOM     37  CD1 TYR A   8       7.607 -31.674 -21.921  0.00  0.00    -0.001 A 
BRANCH  35  38
ATOM     38  OH  TYR A   8       6.504 -28.633 -23.384  0.00  0.00    -0.506 OA
ATOM     39  HH  TYR A   8       6.994 -27.780 -23.494  0.00  0.00    +0.292 HD
ENDBRANCH  35  38
ENDBRANCH  31  32
ENDBRANCH  17  31
ENDBRANCH  14  17
ENDBRANCH  11  13
ENDBRANCH   8  11
ENDBRANCH   6   7
BRANCH   6  40
ATOM     40  CB  LEU A   6      11.086 -35.724 -28.876  0.00  0.00    +0.029 C 
BRANCH  40  41
ATOM     41  CG  LEU A   6      10.560 -36.530 -30.029  0.00  0.00    +0.002 C 
ATOM     42  CD2 LEU A   6      10.422 -37.951 -29.544  0.00  0.00    +0.000 C 
ATOM     43  CD1 LEU A   6      11.632 -36.478 -31.095  0.00  0.00    +0.000 C 
ENDBRANCH  40  41
ENDBRANCH   6  40
ENDBRANCH   3   6
ENDBRANCH   1   2
BRANCH   1  46
ATOM     44  C   ASP A   4      13.913 -31.449 -26.959  0.00  0.00    +0.241 C 
ATOM     45  O   ASP A   4      12.973 -30.713 -26.935  0.00  0.00    -0.273 OA
ATOM     46  N   THR A   5      14.377 -31.972 -28.074  0.00  0.00    -0.295 N 
ATOM     47  H   THR A   5      15.239 -32.553 -28.056  0.00  0.00    +0.150 HD
BRANCH  44  48
ATOM     48  CA  ASP A   4      14.636 -31.780 -25.712  0.00  0.00    +0.160 C 
BRANCH  48  51
ATOM     49  C   ALA A   3      14.093 -29.968 -24.171  0.00  0.00    +0.241 C 
ATOM     50  O   ALA A   3      14.940 -29.246 -24.604  0.00  0.00    -0.273 OA
ATOM     51  N   ASP A   4      13.892 -31.186 -24.624  0.00  0.00    -0.297 N 
ATOM     52  H   ASP A   4      13.151 -31.758 -24.171  0.00  0.00    +0.150 HD
BRANCH  49  53
ATOM     53  CA  ALA A   3      13.205 -29.528 -23.017  0.00  0.00    +0.149 C 
ATOM     54  CB  ALA A   3      12.320 -28.367 -23.411  0.00  0.00    +0.031 C 
BRANCH  53  57
ATOM     55  C   SER A   2      14.091 -29.921 -20.840  0.00  0.00    +0.243 C 
ATOM     56  O   SER A   2      13.391 -30.874 -20.680  0.00  0.00    -0.273 OA
ATOM     57  N   ALA A   3      14.026 -29.169 -21.905  0.00  0.00    -0.297 N 
ATOM     58  H   ALA A   3      14.583 -28.292 -21.944  0.00  0.00    +0.150 HD
BRANCH  55  59
ATOM     59  CA  SER A   2      15.115 -29.536 -19.817  0.00  0.00    +0.178 C 
BRANCH  59  62
ATOM     60  C   TYR A   1      15.047 -29.247 -17.428  0.00  0.00    +0.239 C 
ATOM     61  O   TYR A   1      15.871 -28.320 -17.438  0.00  0.00    -0.274 OA
ATOM     62  N   SER A   2      14.740 -29.961 -18.493  0.00  0.00    -0.295 N 
ATOM     63  H   SER A   2      14.215 -30.851 -18.374  0.00  0.00    +0.150 HD
BRANCH  60  64
ATOM     64  CA  TYR A   1      14.342 -29.637 -16.148  0.00  0.00    +0.149 C 
BRANCH  64  65
ATOM     65  N   TYR A   1      15.295 -29.650 -15.047  0.00  0.00    -0.238 NA
ATOM     66  H   TYR A   1      15.160 -28.997 -14.249  0.00  0.00    +0.142 HD
ENDBRANCH  64  65
BRANCH  64  67
ATOM     67  CB  TYR A   1      13.233 -28.615 -15.898  0.00  0.00    +0.053 C 
BRANCH  67  68
ATOM     68  CG  TYR A   1      12.363 -28.307 -17.105  0.00  0.00    -0.020 A 
ATOM     69  CD2 TYR A   1      11.260 -29.105 -17.423  0.00  0.00    -0.001 A 
ATOM     70  CE2 TYR A   1      10.462 -28.820 -18.520  0.00  0.00    +0.036 A 
ATOM     71  CZ  TYR A   1      10.745 -27.716 -19.309  0.00  0.00    +0.134 A 
ATOM     72  CE1 TYR A   1      11.823 -26.906 -19.003  0.00  0.00    +0.036 A 
ATOM     73  CD1 TYR A   1      12.618 -27.201 -17.909  0.00  0.00    -0.001 A 
BRANCH  71  74
ATOM     74  OH  TYR A   1       9.945 -27.401 -20.392  0.00  0.00    -0.506 OA
ATOM     75  HH  TYR A   1       9.548 -26.504 -20.258  0.00  0.00    +0.292 HD
ENDBRANCH  71  74
ENDBRANCH  67  68
ENDBRANCH  64  67
ENDBRANCH  60  64
ENDBRANCH  59  62
BRANCH  59  76
ATOM     76  CB  SER A   2      16.449 -30.111 -20.207  0.00  0.00    +0.166 C 
BRANCH  76  77
ATOM     77  OG  SER A   2      16.350 -31.450 -20.511  0.00  0.00    -0.380 OA
ATOM     78  H   SER A   2      15.723 -31.570 -21.267  0.00  0.00    +0.211 HD
ENDBRANCH  76  77
ENDBRANCH  59  76
ENDBRANCH  55  59
ENDBRANCH  53  57
ENDBRANCH  49  53
ENDBRANCH  48  51
BRANCH  48  79
ATOM     79  CB  ASP A   4      14.687 -33.281 -25.572  0.00  0.00    +0.143 C 
BRANCH  79  80
ATOM     80  CG  ASP A   4      16.083 -33.858 -25.790  0.00  0.00    +0.367 C 
ATOM     81  OD2 ASP A   4      16.473 -34.777 -25.035  0.00  0.00    -0.246 OA
ATOM     82  OD1 ASP A   4      16.785 -33.426 -26.715  0.00  0.00    -0.246 OA
ENDBRANCH  79  80
ENDBRANCH  48  79
ENDBRANCH  44  48
ENDBRANCH   1  46
BRANCH   1  83
ATOM     83  CB  THR A   5      14.565 -31.985 -30.566  0.00  0.00    +0.137 C 
ATOM     84  CG2 THR A   5      15.470 -30.806 -30.777  0.00  0.00    +0.034 C 
BRANCH  83  85
ATOM     85  OG1 THR A   5      15.362 -33.156 -30.394  0.00  0.00    -0.382 OA
ATOM     86  HG1 THR A   5      15.918 -33.296 -31.201  0.00  0.00    +0.210 HD
ENDBRANCH  83  85
ENDBRANCH   1  83
TORSDOF 34
REMARK  Name = ../refined-set-2016/4zhm/4zhm_pocket.pdb
REMARK  221 active torsions:
REMARK  status: ('A' for Active; 'I' for Inactive)
REMARK    1  A    between atoms: _1  and  _3
REMARK    2  A    between atoms: _3  and  _4
REMARK    3  A    between atoms: _3  and  _6
REMARK    4  A    between atoms: _6  and  _7
REMARK    5  A    between atoms: _10  and  _12
REMARK    6  A    between atoms: _12  and  _13
REMARK    7  A    between atoms: _12  and  _15
REMARK    8  A    between atoms: _15  and  _16
REMARK    9  A    between atoms: _16  and  _17
REMARK   10  A    between atoms: _17  and  _18
REMARK   11  A    between atoms: _27  and  _29
REMARK   12  A    between atoms: _29  and  _30
REMARK   13  A    between atoms: _29  and  _32
REMARK   14  A    between atoms: _32  and  _33
REMARK   15  A    between atoms: _38  and  _40
REMARK   16  A    between atoms: _40  and  _41
REMARK   17  A    between atoms: _40  and  _43
REMARK   18  A    between atoms: _43  and  _44
REMARK   19  A    between atoms: _47  and  _49
REMARK   20  A    between atoms: _49  and  _50
REMARK   21  A    between atoms: _49  and  _52
REMARK   22  A    between atoms: _52  and  _53
REMARK   23  A    between atoms: _58  and  _59
REMARK   24  A    between atoms: _61  and  _63
REMARK   25  A    between atoms: _63  and  _64
REMARK   26  A    between atoms: _63  and  _66
REMARK   27  A    between atoms: _69  and  _71
REMARK   28  A    between atoms: _71  and  _72
REMARK   29  A    between atoms: _71  and  _74
REMARK   30  A    between atoms: _74  and  _75
REMARK   31  A    between atoms: _75  and  _113
REMARK   32  A    between atoms: _76  and  _78
REMARK   33  A    between atoms: _78  and  _79
REMARK   34  A    between atoms: _81  and  _83
REMARK   35  A    between atoms: _83  and  _84
REMARK   36  A    between atoms: _87  and  _89
REMARK   37  A    between atoms: _89  and  _90
REMARK   38  A    between atoms: _89  and  _92
REMARK   39  A    between atoms: _92  and  _93
REMARK   40  A    between atoms: _96  and  _98
REMARK   41  A    between atoms: _98  and  _99
REMARK   42  A    between atoms: _98  and  _101
REMARK   43  A    between atoms: _101  and  _102
REMARK   44  A    between atoms: _107  and  _109
REMARK   45  A    between atoms: _109  and  _110
REMARK   46  A    between atoms: _109  and  _112
REMARK   47  A    between atoms: _112  and  _113
REMARK   48  A    between atoms: _114  and  _116
REMARK   49  A    between atoms: _116  and  _117
REMARK   50  A    between atoms: _116  and  _119
REMARK   51  A    between atoms: _119  and  _120
REMARK   52  A    between atoms: _126  and  _128
REMARK   53  A    between atoms: _128  and  _129
REMARK   54  A    between atoms: _128  and  _131
REMARK   55  A    between atoms: _131  and  _132
REMARK   56  A    between atoms: _135  and  _137
REMARK   57  A    between atoms: _137  and  _138
REMARK   58  A    between atoms: _137  and  _140
REMARK   59  A    between atoms: _140  and  _141
REMARK   60  A    between atoms: _144  and  _146
REMARK   61  A    between atoms: _146  and  _147
REMARK   62  A    between atoms: _146  and  _149
REMARK   63  A    between atoms: _149  and  _150
REMARK   64  A    between atoms: _155  and  _156
REMARK   65  A    between atoms: _158  and  _160
REMARK   66  A    between atoms: _160  and  _161
REMARK   67  A    between atoms: _160  and  _163
REMARK   68  A    between atoms: _163  and  _164
REMARK   69  A    between atoms: _169  and  _170
REMARK   70  A    between atoms: _172  and  _174
REMARK   71  A    between atoms: _174  and  _175
REMARK   72  A    between atoms: _174  and  _177
REMARK   73  A    between atoms: _177  and  _178
REMARK   74  A    between atoms: _181  and  _183
REMARK   75  A    between atoms: _183  and  _184
REMARK   76  A    between atoms: _183  and  _186
REMARK   77  A    between atoms: _186  and  _187
REMARK   78  A    between atoms: _192  and  _193
REMARK   79  A    between atoms: _195  and  _197
REMARK   80  A    between atoms: _197  and  _198
REMARK   81  A    between atoms: _197  and  _200
REMARK   82  A    between atoms: _200  and  _201
REMARK   83  A    between atoms: _203  and  _205
REMARK   84  A    between atoms: _205  and  _206
REMARK   85  A    between atoms: _209  and  _211
REMARK   86  A    between atoms: _211  and  _212
REMARK   87  A    between atoms: _211  and  _214
REMARK   88  A    between atoms: _214  and  _215
REMARK   89  A    between atoms: _218  and  _220
REMARK   90  A    between atoms: _220  and  _221
REMARK   91  A    between atoms: _220  and  _223
REMARK   92  A    between atoms: _223  and  _224
REMARK   93  A    between atoms: _227  and  _229
REMARK   94  A    between atoms: _229  and  _230
REMARK   95  A    between atoms: _229  and  _232
REMARK   96  A    between atoms: _232  and  _233
REMARK   97  A    between atoms: _236  and  _238
REMARK   98  A    between atoms: _238  and  _239
REMARK   99  A    between atoms: _242  and  _244
REMARK  100  A    between atoms: _244  and  _245
REMARK  101  A    between atoms: _244  and  _247
REMARK  102  A    between atoms: _247  and  _248
REMARK  103  A    between atoms: _253  and  _254
REMARK  104  A    between atoms: _256  and  _258
REMARK  105  A    between atoms: _258  and  _259
REMARK  106  A    between atoms: _258  and  _261
REMARK  107  A    between atoms: _261  and  _262
REMARK  108  A    between atoms: _267  and  _269
REMARK  109  A    between atoms: _269  and  _270
REMARK  110  A    between atoms: _269  and  _272
REMARK  111  A    between atoms: _272  and  _273
REMARK  112  A    between atoms: _276  and  _278
REMARK  113  A    between atoms: _278  and  _279
REMARK  114  A    between atoms: _278  and  _281
REMARK  115  A    between atoms: _281  and  _282
REMARK  116  A    between atoms: _288  and  _290
REMARK  117  A    between atoms: _290  and  _291
REMARK  118  A    between atoms: _293  and  _295
REMARK  119  A    between atoms: _295  and  _296
REMARK  120  A    between atoms: _295  and  _298
REMARK  121  A    between atoms: _298  and  _299
REMARK  122  A    between atoms: _299  and  _300
REMARK  123  A    between atoms: _300  and  _301
REMARK  124  A    between atoms: _301  and  _302
REMARK  125  A    between atoms: _306  and  _308
REMARK  126  A    between atoms: _308  and  _309
REMARK  127  A    between atoms: _308  and  _311
REMARK  128  A    between atoms: _311  and  _312
REMARK  129  A    between atoms: _317  and  _318
REMARK  130  A    between atoms: _320  and  _322
REMARK  131  A    between atoms: _322  and  _323
REMARK  132  A    between atoms: _322  and  _325
REMARK  133  A    between atoms: _325  and  _326
REMARK  134  A    between atoms: _329  and  _331
REMARK  135  A    between atoms: _331  and  _332
REMARK  136  A    between atoms: _331  and  _334
REMARK  137  A    between atoms: _334  and  _335
REMARK  138  A    between atoms: _340  and  _341
REMARK  139  A    between atoms: _343  and  _345
REMARK  140  A    between atoms: _345  and  _346
REMARK  141  A    between atoms: _345  and  _348
REMARK  142  A    between atoms: _348  and  _349
REMARK  143  A    between atoms: _354  and  _355
REMARK  144  A    between atoms: _357  and  _359
REMARK  145  A    between atoms: _359  and  _360
REMARK  146  A    between atoms: _359  and  _362
REMARK  147  A    between atoms: _362  and  _363
REMARK  148  A    between atoms: _368  and  _369
REMARK  149  A    between atoms: _371  and  _373
REMARK  150  A    between atoms: _373  and  _374
REMARK  151  A    between atoms: _373  and  _376
REMARK  152  A    between atoms: _376  and  _377
REMARK  153  A    between atoms: _377  and  _378
REMARK  154  A    between atoms: _381  and  _383
REMARK  155  A    between atoms: _383  and  _384
REMARK  156  A    between atoms: _383  and  _386
REMARK  157  A    between atoms: _386  and  _387
REMARK  158  A    between atoms: _389  and  _391
REMARK  159  A    between atoms: _391  and  _392
REMARK  160  A    between atoms: _391  and  _394
REMARK  161  A    between atoms: _394  and  _395
REMARK  162  A    between atoms: _395  and  _505
REMARK  163  A    between atoms: _396  and  _398
REMARK  164  A    between atoms: _398  and  _399
REMARK  165  A    between atoms: _398  and  _401
REMARK  166  A    between atoms: _401  and  _402
REMARK  167  A    between atoms: _402  and  _403
REMARK  168  A    between atoms: _408  and  _410
REMARK  169  A    between atoms: _410  and  _411
REMARK  170  A    between atoms: _413  and  _415
REMARK  171  A    between atoms: _415  and  _416
REMARK  172  A    between atoms: _415  and  _418
REMARK  173  A    between atoms: _418  and  _419
REMARK  174  A    between atoms: _422  and  _424
REMARK  175  A    between atoms: _424  and  _425
REMARK  176  A    between atoms: _424  and  _427
REMARK  177  A    between atoms: _427  and  _428
REMARK  178  A    between atoms: _430  and  _432
REMARK  179  A    between atoms: _432  and  _433
REMARK  180  A    between atoms: _435  and  _437
REMARK  181  A    between atoms: _437  and  _438
REMARK  182  A    between atoms: _440  and  _442
REMARK  183  A    between atoms: _442  and  _443
REMARK  184  A    between atoms: _442  and  _445
REMARK  185  A    between atoms: _448  and  _450
REMARK  186  A    between atoms: _450  and  _451
REMARK  187  A    between atoms: _450  and  _453
REMARK  188  A    between atoms: _453  and  _454
REMARK  189  A    between atoms: _456  and  _458
REMARK  190  A    between atoms: _458  and  _459
REMARK  191  A    between atoms: _458  and  _461
REMARK  192  A    between atoms: _461  and  _462
REMARK  193  A    between atoms: _472  and  _474
REMARK  194  A    between atoms: _474  and  _475
REMARK  195  A    between atoms: _477  and  _479
REMARK  196  A    between atoms: _479  and  _480
REMARK  197  A    between atoms: _479  and  _482
REMARK  198  A    between atoms: _482  and  _483
REMARK  199  A    between atoms: _483  and  _484
REMARK  200  A    between atoms: _484  and  _485
REMARK  201  A    between atoms: _494  and  _496
REMARK  202  A    between atoms: _496  and  _497
REMARK  203  A    between atoms: _499  and  _501
REMARK  204  A    between atoms: _501  and  _502
REMARK  205  A    between atoms: _501  and  _504
REMARK  206  A    between atoms: _504  and  _505
REMARK  207  A    between atoms: _506  and  _508
REMARK  208  A    between atoms: _508  and  _509
REMARK  209  A    between atoms: _508  and  _511
REMARK  210  A    between atoms: _511  and  _512
REMARK  211  A    between atoms: _515  and  _517
REMARK  212  A    between atoms: _517  and  _518
REMARK  213  A    between atoms: _517  and  _520
REMARK  214  A    between atoms: _520  and  _521
REMARK  215  A    between atoms: _521  and  _522
REMARK  216  A    between atoms: _522  and  _523
REMARK  217  A    between atoms: _523  and  _524
REMARK  218  A    between atoms: _529  and  _530
REMARK  219  A    between atoms: _535  and  _537
REMARK  220  A    between atoms: _537  and  _538
REMARK  221  A    between atoms: _537  and  _540
REMARK                            x       y       z     vdW  Elec       q    Type
REMARK                         _______ _______ _______ _____ _____    ______ ____
ROOT
ATOM      1  CA  ASP A   1       9.222 -32.485 -15.820  0.00  0.00    +0.144 C 
ENDROOT
BRANCH   1   2
ATOM      2  N   ASP A   1      10.358 -33.371 -15.625  0.00  0.00    -0.239 NA
ATOM      3  H   ASP A   1      10.327 -34.330 -16.026  0.00  0.00    +0.142 HD
ENDBRANCH   1   2
BRANCH   1   4
ATOM      4  C   ASP A   1       8.289 -32.643 -14.633  0.00  0.00    +0.225 C 
ATOM      5  O   ASP A   1       7.327 -33.420 -14.658  0.00  0.00    -0.287 OA
ENDBRANCH   1   4
BRANCH   1   6
ATOM      6  CB  ASP A   1       8.554 -32.797 -17.151  0.00  0.00    +0.139 C 
BRANCH   6   7
ATOM      7  CG  ASP A   1       7.627 -31.700 -17.620  0.00  0.00    +0.367 C 
ATOM      8  OD2 ASP A   1       7.664 -30.564 -17.072  0.00  0.00    -0.246 OA
ATOM      9  OD1 ASP A   1       6.874 -31.976 -18.575  0.00  0.00    -0.246 OA
ENDBRANCH   6   7
ENDBRANCH   1   6
TORSDOF 4
REMARK  Name = ../refined-set-2016/4zhm/4zhm_pocket.pdb
REMARK  221 active torsions:
REMARK  status: ('A' for Active; 'I' for Inactive)
REMARK    1  A    between atoms: _1  and  _3
REMARK    2  A    between atoms: _3  and  _4
REMARK    3  A    between atoms: _3  and  _6
REMARK    4  A    between atoms: _6  and  _7
REMARK    5  A    between atoms: _10  and  _12
REMARK    6  A    between atoms: _12  and  _13
REMARK    7  A    between atoms: _12  and  _15
REMARK    8  A    between atoms: _15  and  _16
REMARK    9  A    between atoms: _16  and  _17
REMARK   10  A    between atoms: _17  and  _18
REMARK   11  A    between atoms: _27  and  _29
REMARK   12  A    between atoms: _29  and  _30
REMARK   13  A    between atoms: _29  and  _32
REMARK   14  A    between atoms: _32  and  _33
REMARK   15  A    between atoms: _38  and  _40
REMARK   16  A    between atoms: _40  and  _41
REMARK   17  A    between atoms: _40  and  _43
REMARK   18  A    between atoms: _43  and  _44
REMARK   19  A    between atoms: _47  and  _49
REMARK   20  A    between atoms: _49  and  _50
REMARK   21  A    between atoms: _49  and  _52
REMARK   22  A    between atoms: _52  and  _53
REMARK   23  A    between atoms: _58  and  _59
REMARK   24  A    between atoms: _61  and  _63
REMARK   25  A    between atoms: _63  and  _64
REMARK   26  A    between atoms: _63  and  _66
REMARK   27  A    between atoms: _69  and  _71
REMARK   28  A    between atoms: _71  and  _72
REMARK   29  A    between atoms: _71  and  _74
REMARK   30  A    between atoms: _74  and  _75
REMARK   31  A    between atoms: _75  and  _113
REMARK   32  A    between atoms: _76  and  _78
REMARK   33  A    between atoms: _78  and  _79
REMARK   34  A    between atoms: _81  and  _83
REMARK   35  A    between atoms: _83  and  _84
REMARK   36  A    between atoms: _87  and  _89
REMARK   37  A    between atoms: _89  and  _90
REMARK   38  A    between atoms: _89  and  _92
REMARK   39  A    between atoms: _92  and  _93
REMARK   40  A    between atoms: _96  and  _98
REMARK   41  A    between atoms: _98  and  _99
REMARK   42  A    between atoms: _98  and  _101
REMARK   43  A    between atoms: _101  and  _102
REMARK   44  A    between atoms: _107  and  _109
REMARK   45  A    between atoms: _109  and  _110
REMARK   46  A    between atoms: _109  and  _112
REMARK   47  A    between atoms: _112  and  _113
REMARK   48  A    between atoms: _114  and  _116
REMARK   49  A    between atoms: _116  and  _117
REMARK   50  A    between atoms: _116  and  _119
REMARK   51  A    between atoms: _119  and  _120
REMARK   52  A    between atoms: _126  and  _128
REMARK   53  A    between atoms: _128  and  _129
REMARK   54  A    between atoms: _128  and  _131
REMARK   55  A    between atoms: _131  and  _132
REMARK   56  A    between atoms: _135  and  _137
REMARK   57  A    between atoms: _137  and  _138
REMARK   58  A    between atoms: _137  and  _140
REMARK   59  A    between atoms: _140  and  _141
REMARK   60  A    between atoms: _144  and  _146
REMARK   61  A    between atoms: _146  and  _147
REMARK   62  A    between atoms: _146  and  _149
REMARK   63  A    between atoms: _149  and  _150
REMARK   64  A    between atoms: _155  and  _156
REMARK   65  A    between atoms: _158  and  _160
REMARK   66  A    between atoms: _160  and  _161
REMARK   67  A    between atoms: _160  and  _163
REMARK   68  A    between atoms: _163  and  _164
REMARK   69  A    between atoms: _169  and  _170
REMARK   70  A    between atoms: _172  and  _174
REMARK   71  A    between atoms: _174  and  _175
REMARK   72  A    between atoms: _174  and  _177
REMARK   73  A    between atoms: _177  and  _178
REMARK   74  A    between atoms: _181  and  _183
REMARK   75  A    between atoms: _183  and  _184
REMARK   76  A    between atoms: _183  and  _186
REMARK   77  A    between atoms: _186  and  _187
REMARK   78  A    between atoms: _192  and  _193
REMARK   79  A    between atoms: _195  and  _197
REMARK   80  A    between atoms: _197  and  _198
REMARK   81  A    between atoms: _197  and  _200
REMARK   82  A    between atoms: _200  and  _201
REMARK   83  A    between atoms: _203  and  _205
REMARK   84  A    between atoms: _205  and  _206
REMARK   85  A    between atoms: _209  and  _211
REMARK   86  A    between atoms: _211  and  _212
REMARK   87  A    between atoms: _211  and  _214
REMARK   88  A    between atoms: _214  and  _215
REMARK   89  A    between atoms: _218  and  _220
REMARK   90  A    between atoms: _220  and  _221
REMARK   91  A    between atoms: _220  and  _223
REMARK   92  A    between atoms: _223  and  _224
REMARK   93  A    between atoms: _227  and  _229
REMARK   94  A    between atoms: _229  and  _230
REMARK   95  A    between atoms: _229  and  _232
REMARK   96  A    between atoms: _232  and  _233
REMARK   97  A    between atoms: _236  and  _238
REMARK   98  A    between atoms: _238  and  _239
REMARK   99  A    between atoms: _242  and  _244
REMARK  100  A    between atoms: _244  and  _245
REMARK  101  A    between atoms: _244  and  _247
REMARK  102  A    between atoms: _247  and  _248
REMARK  103  A    between atoms: _253  and  _254
REMARK  104  A    between atoms: _256  and  _258
REMARK  105  A    between atoms: _258  and  _259
REMARK  106  A    between atoms: _258  and  _261
REMARK  107  A    between atoms: _261  and  _262
REMARK  108  A    between atoms: _267  and  _269
REMARK  109  A    between atoms: _269  and  _270
REMARK  110  A    between atoms: _269  and  _272
REMARK  111  A    between atoms: _272  and  _273
REMARK  112  A    between atoms: _276  and  _278
REMARK  113  A    between atoms: _278  and  _279
REMARK  114  A    between atoms: _278  and  _281
REMARK  115  A    between atoms: _281  and  _282
REMARK  116  A    between atoms: _288  and  _290
REMARK  117  A    between atoms: _290  and  _291
REMARK  118  A    between atoms: _293  and  _295
REMARK  119  A    between atoms: _295  and  _296
REMARK  120  A    between atoms: _295  and  _298
REMARK  121  A    between atoms: _298  and  _299
REMARK  122  A    between atoms: _299  and  _300
REMARK  123  A    between atoms: _300  and  _301
REMARK  124  A    between atoms: _301  and  _302
REMARK  125  A    between atoms: _306  and  _308
REMARK  126  A    between atoms: _308  and  _309
REMARK  127  A    between atoms: _308  and  _311
REMARK  128  A    between atoms: _311  and  _312
REMARK  129  A    between atoms: _317  and  _318
REMARK  130  A    between atoms: _320  and  _322
REMARK  131  A    between atoms: _322  and  _323
REMARK  132  A    between atoms: _322  and  _325
REMARK  133  A    between atoms: _325  and  _326
REMARK  134  A    between atoms: _329  and  _331
REMARK  135  A    between atoms: _331  and  _332
REMARK  136  A    between atoms: _331  and  _334
REMARK  137  A    between atoms: _334  and  _335
REMARK  138  A    between atoms: _340  and  _341
REMARK  139  A    between atoms: _343  and  _345
REMARK  140  A    between atoms: _345  and  _346
REMARK  141  A    between atoms: _345  and  _348
REMARK  142  A    between atoms: _348  and  _349
REMARK  143  A    between atoms: _354  and  _355
REMARK  144  A    between atoms: _357  and  _359
REMARK  145  A    between atoms: _359  and  _360
REMARK  146  A    between atoms: _359  and  _362
REMARK  147  A    between atoms: _362  and  _363
REMARK  148  A    between atoms: _368  and  _369
REMARK  149  A    between atoms: _371  and  _373
REMARK  150  A    between atoms: _373  and  _374
REMARK  151  A    between atoms: _373  and  _376
REMARK  152  A    between atoms: _376  and  _377
REMARK  153  A    between atoms: _377  and  _378
REMARK  154  A    between atoms: _381  and  _383
REMARK  155  A    between atoms: _383  and  _384
REMARK  156  A    between atoms: _383  and  _386
REMARK  157  A    between atoms: _386  and  _387
REMARK  158  A    between atoms: _389  and  _391
REMARK  159  A    between atoms: _391  and  _392
REMARK  160  A    between atoms: _391  and  _394
REMARK  161  A    between atoms: _394  and  _395
REMARK  162  A    between atoms: _395  and  _505
REMARK  163  A    between atoms: _396  and  _398
REMARK  164  A    between atoms: _398  and  _399
REMARK  165  A    between atoms: _398  and  _401
REMARK  166  A    between atoms: _401  and  _402
REMARK  167  A    between atoms: _402  and  _403
REMARK  168  A    between atoms: _408  and  _410
REMARK  169  A    between atoms: _410  and  _411
REMARK  170  A    between atoms: _413  and  _415
REMARK  171  A    between atoms: _415  and  _416
REMARK  172  A    between atoms: _415  and  _418
REMARK  173  A    between atoms: _418  and  _419
REMARK  174  A    between atoms: _422  and  _424
REMARK  175  A    between atoms: _424  and  _425
REMARK  176  A    between atoms: _424  and  _427
REMARK  177  A    between atoms: _427  and  _428
REMARK  178  A    between atoms: _430  and  _432
REMARK  179  A    between atoms: _432  and  _433
REMARK  180  A    between atoms: _435  and  _437
REMARK  181  A    between atoms: _437  and  _438
REMARK  182  A    between atoms: _440  and  _442
REMARK  183  A    between atoms: _442  and  _443
REMARK  184  A    between atoms: _442  and  _445
REMARK  185  A    between atoms: _448  and  _450
REMARK  186  A    between atoms: _450  and  _451
REMARK  187  A    between atoms: _450  and  _453
REMARK  188  A    between atoms: _453  and  _454
REMARK  189  A    between atoms: _456  and  _458
REMARK  190  A    between atoms: _458  and  _459
REMARK  191  A    between atoms: _458  and  _461
REMARK  192  A    between atoms: _461  and  _462
REMARK  193  A    between atoms: _472  and  _474
REMARK  194  A    between atoms: _474  and  _475
REMARK  195  A    between atoms: _477  and  _479
REMARK  196  A    between atoms: _479  and  _480
REMARK  197  A    between atoms: _479  and  _482
REMARK  198  A    between atoms: _482  and  _483
REMARK  199  A    between atoms: _483  and  _484
REMARK  200  A    between atoms: _484  and  _485
REMARK  201  A    between atoms: _494  and  _496
REMARK  202  A    between atoms: _496  and  _497
REMARK  203  A    between atoms: _499  and  _501
REMARK  204  A    between atoms: _501  and  _502
REMARK  205  A    between atoms: _501  and  _504
REMARK  206  A    between atoms: _504  and  _505
REMARK  207  A    between atoms: _506  and  _508
REMARK  208  A    between atoms: _508  and  _509
REMARK  209  A    between atoms: _508  and  _511
REMARK  210  A    between atoms: _511  and  _512
REMARK  211  A    between atoms: _515  and  _517
REMARK  212  A    between atoms: _517  and  _518
REMARK  213  A    between atoms: _517  and  _520
REMARK  214  A    between atoms: _520  and  _521
REMARK  215  A    between atoms: _521  and  _522
REMARK  216  A    between atoms: _522  and  _523
REMARK  217  A    between atoms: _523  and  _524
REMARK  218  A    between atoms: _529  and  _530
REMARK  219  A    between atoms: _535  and  _537
REMARK  220  A    between atoms: _537  and  _538
REMARK  221  A    between atoms: _537  and  _540
REMARK                            x       y       z     vdW  Elec       q    Type
REMARK                         _______ _______ _______ _____ _____    ______ ____
ROOT
ATOM      1  CA  GLY A   2      -7.232 -31.085 -22.596  0.00  0.00    +0.176 C 
ENDROOT
BRANCH   1   3
ATOM      2  C   PHE A   1      -8.749 -30.113 -20.968  0.00  0.00    +0.239 C 
ATOM      3  N   GLY A   2      -7.934 -31.108 -21.314  0.00  0.00    -0.296 N 
ATOM      4  H   GLY A   2      -7.796 -31.909 -20.666  0.00  0.00    +0.150 HD
ATOM      5  O   PHE A   1      -8.960 -29.152 -21.702  0.00  0.00    -0.274 OA
BRANCH   2   6
ATOM      6  CA  PHE A   1      -9.431 -30.213 -19.611  0.00  0.00    +0.149 C 
BRANCH   6   7
ATOM      7  N   PHE A   1      -8.645 -31.099 -18.760  0.00  0.00    -0.238 NA
ATOM      8  H   PHE A   1      -7.771 -30.726 -18.336  0.00  0.00    +0.142 HD
ENDBRANCH   6   7
BRANCH   6   9
ATOM      9  CB  PHE A   1      -9.517 -28.812 -19.000  0.00  0.00    +0.053 C 
BRANCH   9  10
ATOM     10  CG  PHE A   1     -10.393 -28.714 -17.790  0.00  0.00    -0.020 A 
ATOM     11  CD2 PHE A   1      -9.851 -28.398 -16.556  0.00  0.00    -0.004 A 
ATOM     12  CE2 PHE A   1     -10.650 -28.266 -15.440  0.00  0.00    -0.000 A 
ATOM     13  CZ  PHE A   1     -12.026 -28.444 -15.548  0.00  0.00    -0.000 A 
ATOM     14  CE1 PHE A   1     -12.584 -28.740 -16.772  0.00  0.00    -0.000 A 
ATOM     15  CD1 PHE A   1     -11.772 -28.873 -17.892  0.00  0.00    -0.004 A 
ENDBRANCH   9  10
ENDBRANCH   6   9
ENDBRANCH   2   6
ENDBRANCH   1   3
BRANCH   1  16
ATOM     16  C   GLY A   2      -8.164 -31.292 -23.782  0.00  0.00    +0.243 C 
ATOM     17  O   GLY A   2      -9.315 -31.713 -23.646  0.00  0.00    -0.273 OA
ATOM     18  N   LYS A   3      -7.648 -31.024 -24.973  0.00  0.00    -0.298 N 
ATOM     19  H   LYS A   3      -6.672 -30.671 -25.039  0.00  0.00    +0.150 HD
BRANCH  18  20
ATOM     20  CA  LYS A   3      -8.422 -31.214 -26.189  0.00  0.00    +0.137 C 
BRANCH  20  21
ATOM     21  C   LYS A   3      -8.988 -32.635 -26.362  0.00  0.00    +0.227 C 
ATOM     22  O   LYS A   3      -8.353 -33.645 -25.994  0.00  0.00    -0.286 OA
ENDBRANCH  20  21
BRANCH  20  23
ATOM     23  CB  LYS A   3      -7.577 -30.844 -27.430  0.00  0.00    +0.028 C 
BRANCH  23  24
ATOM     24  CG  LYS A   3      -7.065 -29.411 -27.447  0.00  0.00    -0.000 C 
BRANCH  24  25
ATOM     25  CD  LYS A   3      -6.110 -29.181 -28.616  0.00  0.00    -0.024 C 
BRANCH  25  26
ATOM     26  CE  LYS A   3      -5.729 -27.718 -28.716  0.00  0.00    -0.086 C 
BRANCH  26  27
ATOM     27  NZ  LYS A   3      -4.737 -27.476 -29.806  0.00  0.00    +0.380 N 
ATOM     28  HZ1 LYS A   3      -3.875 -28.026 -29.617  0.00  0.00    -0.089 HD
ATOM     29  HZ2 LYS A   3      -4.503 -26.463 -29.841  0.00  0.00    -0.089 HD
ATOM     30  HZ3 LYS A   3      -5.145 -27.771 -30.716  0.00  0.00    -0.089 HD
ENDBRANCH  26  27
ENDBRANCH  25  26
ENDBRANCH  24  25
ENDBRANCH  23  24
ENDBRANCH  20  23
ENDBRANCH  18  20
ENDBRANCH   1  16
TORSDOF 13
REMARK  Name = ../refined-set-2016/4zhm/4zhm_pocket.pdb
REMARK  221 active torsions:
REMARK  status: ('A' for Active; 'I' for Inactive)
REMARK    1  A    between atoms: _1  and  _3
REMARK    2  A    between atoms: _3  and  _4
REMARK    3  A    between atoms: _3  and  _6
REMARK    4  A    between atoms: _6  and  _7
REMARK    5  A    between atoms: _10  and  _12
REMARK    6  A    between atoms: _12  and  _13
REMARK    7  A    between atoms: _12  and  _15
REMARK    8  A    between atoms: _15  and  _16
REMARK    9  A    between atoms: _16  and  _17
REMARK   10  A    between atoms: _17  and  _18
REMARK   11  A    between atoms: _27  and  _29
REMARK   12  A    between atoms: _29  and  _30
REMARK   13  A    between atoms: _29  and  _32
REMARK   14  A    between atoms: _32  and  _33
REMARK   15  A    between atoms: _38  and  _40
REMARK   16  A    between atoms: _40  and  _41
REMARK   17  A    between atoms: _40  and  _43
REMARK   18  A    between atoms: _43  and  _44
REMARK   19  A    between atoms: _47  and  _49
REMARK   20  A    between atoms: _49  and  _50
REMARK   21  A    between atoms: _49  and  _52
REMARK   22  A    between atoms: _52  and  _53
REMARK   23  A    between atoms: _58  and  _59
REMARK   24  A    between atoms: _61  and  _63
REMARK   25  A    between atoms: _63  and  _64
REMARK   26  A    between atoms: _63  and  _66
REMARK   27  A    between atoms: _69  and  _71
REMARK   28  A    between atoms: _71  and  _72
REMARK   29  A    between atoms: _71  and  _74
REMARK   30  A    between atoms: _74  and  _75
REMARK   31  A    between atoms: _75  and  _113
REMARK   32  A    between atoms: _76  and  _78
REMARK   33  A    between atoms: _78  and  _79
REMARK   34  A    between atoms: _81  and  _83
REMARK   35  A    between atoms: _83  and  _84
REMARK   36  A    between atoms: _87  and  _89
REMARK   37  A    between atoms: _89  and  _90
REMARK   38  A    between atoms: _89  and  _92
REMARK   39  A    between atoms: _92  and  _93
REMARK   40  A    between atoms: _96  and  _98
REMARK   41  A    between atoms: _98  and  _99
REMARK   42  A    between atoms: _98  and  _101
REMARK   43  A    between atoms: _101  and  _102
REMARK   44  A    between atoms: _107  and  _109
REMARK   45  A    between atoms: _109  and  _110
REMARK   46  A    between atoms: _109  and  _112
REMARK   47  A    between atoms: _112  and  _113
REMARK   48  A    between atoms: _114  and  _116
REMARK   49  A    between atoms: _116  and  _117
REMARK   50  A    between atoms: _116  and  _119
REMARK   51  A    between atoms: _119  and  _120
REMARK   52  A    between atoms: _126  and  _128
REMARK   53  A    between atoms: _128  and  _129
REMARK   54  A    between atoms: _128  and  _131
REMARK   55  A    between atoms: _131  and  _132
REMARK   56  A    between atoms: _135  and  _137
REMARK   57  A    between atoms: _137  and  _138
REMARK   58  A    between atoms: _137  and  _140
REMARK   59  A    between atoms: _140  and  _141
REMARK   60  A    between atoms: _144  and  _146
REMARK   61  A    between atoms: _146  and  _147
REMARK   62  A    between atoms: _146  and  _149
REMARK   63  A    between atoms: _149  and  _150
REMARK   64  A    between atoms: _155  and  _156
REMARK   65  A    between atoms: _158  and  _160
REMARK   66  A    between atoms: _160  and  _161
REMARK   67  A    between atoms: _160  and  _163
REMARK   68  A    between atoms: _163  and  _164
REMARK   69  A    between atoms: _169  and  _170
REMARK   70  A    between atoms: _172  and  _174
REMARK   71  A    between atoms: _174  and  _175
REMARK   72  A    between atoms: _174  and  _177
REMARK   73  A    between atoms: _177  and  _178
REMARK   74  A    between atoms: _181  and  _183
REMARK   75  A    between atoms: _183  and  _184
REMARK   76  A    between atoms: _183  and  _186
REMARK   77  A    between atoms: _186  and  _187
REMARK   78  A    between atoms: _192  and  _193
REMARK   79  A    between atoms: _195  and  _197
REMARK   80  A    between atoms: _197  and  _198
REMARK   81  A    between atoms: _197  and  _200
REMARK   82  A    between atoms: _200  and  _201
REMARK   83  A    between atoms: _203  and  _205
REMARK   84  A    between atoms: _205  and  _206
REMARK   85  A    between atoms: _209  and  _211
REMARK   86  A    between atoms: _211  and  _212
REMARK   87  A    between atoms: _211  and  _214
REMARK   88  A    between atoms: _214  and  _215
REMARK   89  A    between atoms: _218  and  _220
REMARK   90  A    between atoms: _220  and  _221
REMARK   91  A    between atoms: _220  and  _223
REMARK   92  A    between atoms: _223  and  _224
REMARK   93  A    between atoms: _227  and  _229
REMARK   94  A    between atoms: _229  and  _230
REMARK   95  A    between atoms: _229  and  _232
REMARK   96  A    between atoms: _232  and  _233
REMARK   97  A    between atoms: _236  and  _238
REMARK   98  A    between atoms: _238  and  _239
REMARK   99  A    between atoms: _242  and  _244
REMARK  100  A    between atoms: _244  and  _245
REMARK  101  A    between atoms: _244  and  _247
REMARK  102  A    between atoms: _247  and  _248
REMARK  103  A    between atoms: _253  and  _254
REMARK  104  A    between atoms: _256  and  _258
REMARK  105  A    between atoms: _258  and  _259
REMARK  106  A    between atoms: _258  and  _261
REMARK  107  A    between atoms: _261  and  _262
REMARK  108  A    between atoms: _267  and  _269
REMARK  109  A    between atoms: _269  and  _270
REMARK  110  A    between atoms: _269  and  _272
REMARK  111  A    between atoms: _272  and  _273
REMARK  112  A    between atoms: _276  and  _278
REMARK  113  A    between atoms: _278  and  _279
REMARK  114  A    between atoms: _278  and  _281
REMARK  115  A    between atoms: _281  and  _282
REMARK  116  A    between atoms: _288  and  _290
REMARK  117  A    between atoms: _290  and  _291
REMARK  118  A    between atoms: _293  and  _295
REMARK  119  A    between atoms: _295  and  _296
REMARK  120  A    between atoms: _295  and  _298
REMARK  121  A    between atoms: _298  and  _299
REMARK  122  A    between atoms: _299  and  _300
REMARK  123  A    between atoms: _300  and  _301
REMARK  124  A    between atoms: _301  and  _302
REMARK  125  A    between atoms: _306  and  _308
REMARK  126  A    between atoms: _308  and  _309
REMARK  127  A    between atoms: _308  and  _311
REMARK  128  A    between atoms: _311  and  _312
REMARK  129  A    between atoms: _317  and  _318
REMARK  130  A    between atoms: _320  and  _322
REMARK  131  A    between atoms: _322  and  _323
REMARK  132  A    between atoms: _322  and  _325
REMARK  133  A    between atoms: _325  and  _326
REMARK  134  A    between atoms: _329  and  _331
REMARK  135  A    between atoms: _331  and  _332
REMARK  136  A    between atoms: _331  and  _334
REMARK  137  A    between atoms: _334  and  _335
REMARK  138  A    between atoms: _340  and  _341
REMARK  139  A    between atoms: _343  and  _345
REMARK  140  A    between atoms: _345  and  _346
REMARK  141  A    between atoms: _345  and  _348
REMARK  142  A    between atoms: _348  and  _349
REMARK  143  A    between atoms: _354  and  _355
REMARK  144  A    between atoms: _357  and  _359
REMARK  145  A    between atoms: _359  and  _360
REMARK  146  A    between atoms: _359  and  _362
REMARK  147  A    between atoms: _362  and  _363
REMARK  148  A    between atoms: _368  and  _369
REMARK  149  A    between atoms: _371  and  _373
REMARK  150  A    between atoms: _373  and  _374
REMARK  151  A    between atoms: _373  and  _376
REMARK  152  A    between atoms: _376  and  _377
REMARK  153  A    between atoms: _377  and  _378
REMARK  154  A    between atoms: _381  and  _383
REMARK  155  A    between atoms: _383  and  _384
REMARK  156  A    between atoms: _383  and  _386
REMARK  157  A    between atoms: _386  and  _387
REMARK  158  A    between atoms: _389  and  _391
REMARK  159  A    between atoms: _391  and  _392
REMARK  160  A    between atoms: _391  and  _394
REMARK  161  A    between atoms: _394  and  _395
REMARK  162  A    between atoms: _395  and  _505
REMARK  163  A    between atoms: _396  and  _398
REMARK  164  A    between atoms: _398  and  _399
REMARK  165  A    between atoms: _398  and  _401
REMARK  166  A    between atoms: _401  and  _402
REMARK  167  A    between atoms: _402  and  _403
REMARK  168  A    between atoms: _408  and  _410
REMARK  169  A    between atoms: _410  and  _411
REMARK  170  A    between atoms: _413  and  _415
REMARK  171  A    between atoms: _415  and  _416
REMARK  172  A    between atoms: _415  and  _418
REMARK  173  A    between atoms: _418  and  _419
REMARK  174  A    between atoms: _422  and  _424
REMARK  175  A    between atoms: _424  and  _425
REMARK  176  A    between atoms: _424  and  _427
REMARK  177  A    between atoms: _427  and  _428
REMARK  178  A    between atoms: _430  and  _432
REMARK  179  A    between atoms: _432  and  _433
REMARK  180  A    between atoms: _435  and  _437
REMARK  181  A    between atoms: _437  and  _438
REMARK  182  A    between atoms: _440  and  _442
REMARK  183  A    between atoms: _442  and  _443
REMARK  184  A    between atoms: _442  and  _445
REMARK  185  A    between atoms: _448  and  _450
REMARK  186  A    between atoms: _450  and  _451
REMARK  187  A    between atoms: _450  and  _453
REMARK  188  A    between atoms: _453  and  _454
REMARK  189  A    between atoms: _456  and  _458
REMARK  190  A    between atoms: _458  and  _459
REMARK  191  A    between atoms: _458  and  _461
REMARK  192  A    between atoms: _461  and  _462
REMARK  193  A    between atoms: _472  and  _474
REMARK  194  A    between atoms: _474  and  _475
REMARK  195  A    between atoms: _477  and  _479
REMARK  196  A    between atoms: _479  and  _480
REMARK  197  A    between atoms: _479  and  _482
REMARK  198  A    between atoms: _482  and  _483
REMARK  199  A    between atoms: _483  and  _484
REMARK  200  A    between atoms: _484  and  _485
REMARK  201  A    between atoms: _494  and  _496
REMARK  202  A    between atoms: _496  and  _497
REMARK  203  A    between atoms: _499  and  _501
REMARK  204  A    between atoms: _501  and  _502
REMARK  205  A    between atoms: _501  and  _504
REMARK  206  A    between atoms: _504  and  _505
REMARK  207  A    between atoms: _506  and  _508
REMARK  208  A    between atoms: _508  and  _509
REMARK  209  A    between atoms: _508  and  _511
REMARK  210  A    between atoms: _511  and  _512
REMARK  211  A    between atoms: _515  and  _517
REMARK  212  A    between atoms: _517  and  _518
REMARK  213  A    between atoms: _517  and  _520
REMARK  214  A    between atoms: _520  and  _521
REMARK  215  A    between atoms: _521  and  _522
REMARK  216  A    between atoms: _522  and  _523
REMARK  217  A    between atoms: _523  and  _524
REMARK  218  A    between atoms: _529  and  _530
REMARK  219  A    between atoms: _535  and  _537
REMARK  220  A    between atoms: _537  and  _538
REMARK  221  A    between atoms: _537  and  _540
REMARK                            x       y       z     vdW  Elec       q    Type
REMARK                         _______ _______ _______ _____ _____    ______ ____
ROOT
ATOM      1  CA  LEU A   2     -11.018 -25.127 -28.324  0.00  0.00    +0.149 C 
ENDROOT
BRANCH   1   4
ATOM      2  C   TYR A   1      -9.268 -24.793 -30.016  0.00  0.00    +0.239 C 
ATOM      3  O   TYR A   1      -8.660 -23.973 -29.329  0.00  0.00    -0.274 OA
ATOM      4  N   LEU A   2     -10.387 -25.392 -29.608  0.00  0.00    -0.297 N 
ATOM      5  H   LEU A   2     -10.833 -26.086 -30.241  0.00  0.00    +0.150 HD
BRANCH   2   6
ATOM      6  CA  TYR A   1      -8.747 -25.185 -31.409  0.00  0.00    +0.149 C 
BRANCH   6   7
ATOM      7  N   TYR A   1      -9.260 -26.496 -31.792  0.00  0.00    -0.238 NA
ATOM      8  H   TYR A   1     -10.257 -26.564 -32.081  0.00  0.00    +0.142 HD
ENDBRANCH   6   7
BRANCH   6   9
ATOM      9  CB  TYR A   1      -9.177 -24.170 -32.474  0.00  0.00    +0.053 C 
BRANCH   9  10
ATOM     10  CG  TYR A   1      -8.846 -22.724 -32.185  0.00  0.00    -0.020 A 
ATOM     11  CD2 TYR A   1      -9.816 -21.853 -31.684  0.00  0.00    -0.001 A 
ATOM     12  CE2 TYR A   1      -9.523 -20.521 -31.423  0.00  0.00    +0.036 A 
ATOM     13  CZ  TYR A   1      -8.254 -20.040 -31.677  0.00  0.00    +0.134 A 
ATOM     14  CE1 TYR A   1      -7.276 -20.884 -32.188  0.00  0.00    +0.036 A 
ATOM     15  CD1 TYR A   1      -7.578 -22.215 -32.441  0.00  0.00    -0.001 A 
BRANCH  13  16
ATOM     16  OH  TYR A   1      -7.959 -18.719 -31.422  0.00  0.00    -0.506 OA
ATOM     17  HH  TYR A   1      -7.014 -18.542 -31.658  0.00  0.00    +0.292 HD
ENDBRANCH  13  16
ENDBRANCH   9  10
ENDBRANCH   6   9
ENDBRANCH   2   6
ENDBRANCH   1   4
BRANCH   1  18
ATOM     18  C   LEU A   2     -10.833 -26.281 -27.358  0.00  0.00    +0.241 C 
ATOM     19  N   TYR A   3     -10.913 -25.957 -26.074  0.00  0.00    -0.298 N 
ATOM     20  H   TYR A   3     -11.046 -24.957 -25.822  0.00  0.00    +0.150 HD
ATOM     21  O   LEU A   2     -10.657 -27.431 -27.767  0.00  0.00    -0.273 OA
BRANCH  19  22
ATOM     22  CA  TYR A   3     -10.823 -26.938 -25.001  0.00  0.00    +0.141 C 
BRANCH  22  23
ATOM     23  C   TYR A   3     -12.204 -27.227 -24.441  0.00  0.00    +0.227 C 
ATOM     24  O   TYR A   3     -13.074 -26.358 -24.454  0.00  0.00    -0.286 OA
ENDBRANCH  22  23
BRANCH  22  25
ATOM     25  CB  TYR A   3      -9.892 -26.424 -23.914  0.00  0.00    +0.054 C 
BRANCH  25  26
ATOM     26  CG  TYR A   3      -8.499 -26.289 -24.453  0.00  0.00    -0.020 A 
ATOM     27  CD2 TYR A   3      -7.562 -27.291 -24.258  0.00  0.00    -0.001 A 
ATOM     28  CE2 TYR A   3      -6.287 -27.190 -24.783  0.00  0.00    +0.036 A 
ATOM     29  CZ  TYR A   3      -5.940 -26.091 -25.536  0.00  0.00    +0.134 A 
ATOM     30  CE1 TYR A   3      -6.861 -25.083 -25.766  0.00  0.00    +0.036 A 
ATOM     31  CD1 TYR A   3      -8.139 -25.195 -25.234  0.00  0.00    -0.001 A 
BRANCH  29  32
ATOM     32  OH  TYR A   3      -4.657 -26.013 -26.053  0.00  0.00    -0.506 OA
ATOM     33  HH  TYR A   3      -4.560 -25.172 -26.567  0.00  0.00    +0.292 HD
ENDBRANCH  29  32
ENDBRANCH  25  26
ENDBRANCH  22  25
ENDBRANCH  19  22
ENDBRANCH   1  18
BRANCH   1  34
ATOM     34  CB  LEU A   2     -12.519 -24.900 -28.518  0.00  0.00    +0.029 C 
BRANCH  34  35
ATOM     35  CG  LEU A   2     -12.887 -23.766 -29.486  0.00  0.00    +0.002 C 
ATOM     36  CD2 LEU A   2     -12.455 -22.418 -28.929  0.00  0.00    +0.000 C 
ATOM     37  CD1 LEU A   2     -14.375 -23.782 -29.787  0.00  0.00    +0.000 C 
ENDBRANCH  34  35
ENDBRANCH   1  34
TORSDOF 14
REMARK  Name = ../refined-set-2016/4zhm/4zhm_pocket.pdb
REMARK  221 active torsions:
REMARK  status: ('A' for Active; 'I' for Inactive)
REMARK    1  A    between atoms: _1  and  _3
REMARK    2  A    between atoms: _3  and  _4
REMARK    3  A    between atoms: _3  and  _6
REMARK    4  A    between atoms: _6  and  _7
REMARK    5  A    between atoms: _10  and  _12
REMARK    6  A    between atoms: _12  and  _13
REMARK    7  A    between atoms: _12  and  _15
REMARK    8  A    between atoms: _15  and  _16
REMARK    9  A    between atoms: _16  and  _17
REMARK   10  A    between atoms: _17  and  _18
REMARK   11  A    between atoms: _27  and  _29
REMARK   12  A    between atoms: _29  and  _30
REMARK   13  A    between atoms: _29  and  _32
REMARK   14  A    between atoms: _32  and  _33
REMARK   15  A    between atoms: _38  and  _40
REMARK   16  A    between atoms: _40  and  _41
REMARK   17  A    between atoms: _40  and  _43
REMARK   18  A    between atoms: _43  and  _44
REMARK   19  A    between atoms: _47  and  _49
REMARK   20  A    between atoms: _49  and  _50
REMARK   21  A    between atoms: _49  and  _52
REMARK   22  A    between atoms: _52  and  _53
REMARK   23  A    between atoms: _58  and  _59
REMARK   24  A    between atoms: _61  and  _63
REMARK   25  A    between atoms: _63  and  _64
REMARK   26  A    between atoms: _63  and  _66
REMARK   27  A    between atoms: _69  and  _71
REMARK   28  A    between atoms: _71  and  _72
REMARK   29  A    between atoms: _71  and  _74
REMARK   30  A    between atoms: _74  and  _75
REMARK   31  A    between atoms: _75  and  _113
REMARK   32  A    between atoms: _76  and  _78
REMARK   33  A    between atoms: _78  and  _79
REMARK   34  A    between atoms: _81  and  _83
REMARK   35  A    between atoms: _83  and  _84
REMARK   36  A    between atoms: _87  and  _89
REMARK   37  A    between atoms: _89  and  _90
REMARK   38  A    between atoms: _89  and  _92
REMARK   39  A    between atoms: _92  and  _93
REMARK   40  A    between atoms: _96  and  _98
REMARK   41  A    between atoms: _98  and  _99
REMARK   42  A    between atoms: _98  and  _101
REMARK   43  A    between atoms: _101  and  _102
REMARK   44  A    between atoms: _107  and  _109
REMARK   45  A    between atoms: _109  and  _110
REMARK   46  A    between atoms: _109  and  _112
REMARK   47  A    between atoms: _112  and  _113
REMARK   48  A    between atoms: _114  and  _116
REMARK   49  A    between atoms: _116  and  _117
REMARK   50  A    between atoms: _116  and  _119
REMARK   51  A    between atoms: _119  and  _120
REMARK   52  A    between atoms: _126  and  _128
REMARK   53  A    between atoms: _128  and  _129
REMARK   54  A    between atoms: _128  and  _131
REMARK   55  A    between atoms: _131  and  _132
REMARK   56  A    between atoms: _135  and  _137
REMARK   57  A    between atoms: _137  and  _138
REMARK   58  A    between atoms: _137  and  _140
REMARK   59  A    between atoms: _140  and  _141
REMARK   60  A    between atoms: _144  and  _146
REMARK   61  A    between atoms: _146  and  _147
REMARK   62  A    between atoms: _146  and  _149
REMARK   63  A    between atoms: _149  and  _150
REMARK   64  A    between atoms: _155  and  _156
REMARK   65  A    between atoms: _158  and  _160
REMARK   66  A    between atoms: _160  and  _161
REMARK   67  A    between atoms: _160  and  _163
REMARK   68  A    between atoms: _163  and  _164
REMARK   69  A    between atoms: _169  and  _170
REMARK   70  A    between atoms: _172  and  _174
REMARK   71  A    between atoms: _174  and  _175
REMARK   72  A    between atoms: _174  and  _177
REMARK   73  A    between atoms: _177  and  _178
REMARK   74  A    between atoms: _181  and  _183
REMARK   75  A    between atoms: _183  and  _184
REMARK   76  A    between atoms: _183  and  _186
REMARK   77  A    between atoms: _186  and  _187
REMARK   78  A    between atoms: _192  and  _193
REMARK   79  A    between atoms: _195  and  _197
REMARK   80  A    between atoms: _197  and  _198
REMARK   81  A    between atoms: _197  and  _200
REMARK   82  A    between atoms: _200  and  _201
REMARK   83  A    between atoms: _203  and  _205
REMARK   84  A    between atoms: _205  and  _206
REMARK   85  A    between atoms: _209  and  _211
REMARK   86  A    between atoms: _211  and  _212
REMARK   87  A    between atoms: _211  and  _214
REMARK   88  A    between atoms: _214  and  _215
REMARK   89  A    between atoms: _218  and  _220
REMARK   90  A    between atoms: _220  and  _221
REMARK   91  A    between atoms: _220  and  _223
REMARK   92  A    between atoms: _223  and  _224
REMARK   93  A    between atoms: _227  and  _229
REMARK   94  A    between atoms: _229  and  _230
REMARK   95  A    between atoms: _229  and  _232
REMARK   96  A    between atoms: _232  and  _233
REMARK   97  A    between atoms: _236  and  _238
REMARK   98  A    between atoms: _238  and  _239
REMARK   99  A    between atoms: _242  and  _244
REMARK  100  A    between atoms: _244  and  _245
REMARK  101  A    between atoms: _244  and  _247
REMARK  102  A    between atoms: _247  and  _248
REMARK  103  A    between atoms: _253  and  _254
REMARK  104  A    between atoms: _256  and  _258
REMARK  105  A    between atoms: _258  and  _259
REMARK  106  A    between atoms: _258  and  _261
REMARK  107  A    between atoms: _261  and  _262
REMARK  108  A    between atoms: _267  and  _269
REMARK  109  A    between atoms: _269  and  _270
REMARK  110  A    between atoms: _269  and  _272
REMARK  111  A    between atoms: _272  and  _273
REMARK  112  A    between atoms: _276  and  _278
REMARK  113  A    between atoms: _278  and  _279
REMARK  114  A    between atoms: _278  and  _281
REMARK  115  A    between atoms: _281  and  _282
REMARK  116  A    between atoms: _288  and  _290
REMARK  117  A    between atoms: _290  and  _291
REMARK  118  A    between atoms: _293  and  _295
REMARK  119  A    between atoms: _295  and  _296
REMARK  120  A    between atoms: _295  and  _298
REMARK  121  A    between atoms: _298  and  _299
REMARK  122  A    between atoms: _299  and  _300
REMARK  123  A    between atoms: _300  and  _301
REMARK  124  A    between atoms: _301  and  _302
REMARK  125  A    between atoms: _306  and  _308
REMARK  126  A    between atoms: _308  and  _309
REMARK  127  A    between atoms: _308  and  _311
REMARK  128  A    between atoms: _311  and  _312
REMARK  129  A    between atoms: _317  and  _318
REMARK  130  A    between atoms: _320  and  _322
REMARK  131  A    between atoms: _322  and  _323
REMARK  132  A    between atoms: _322  and  _325
REMARK  133  A    between atoms: _325  and  _326
REMARK  134  A    between atoms: _329  and  _331
REMARK  135  A    between atoms: _331  and  _332
REMARK  136  A    between atoms: _331  and  _334
REMARK  137  A    between atoms: _334  and  _335
REMARK  138  A    between atoms: _340  and  _341
REMARK  139  A    between atoms: _343  and  _345
REMARK  140  A    between atoms: _345  and  _346
REMARK  141  A    between atoms: _345  and  _348
REMARK  142  A    between atoms: _348  and  _349
REMARK  143  A    between atoms: _354  and  _355
REMARK  144  A    between atoms: _357  and  _359
REMARK  145  A    between atoms: _359  and  _360
REMARK  146  A    between atoms: _359  and  _362
REMARK  147  A    between atoms: _362  and  _363
REMARK  148  A    between atoms: _368  and  _369
REMARK  149  A    between atoms: _371  and  _373
REMARK  150  A    between atoms: _373  and  _374
REMARK  151  A    between atoms: _373  and  _376
REMARK  152  A    between atoms: _376  and  _377
REMARK  153  A    between atoms: _377  and  _378
REMARK  154  A    between atoms: _381  and  _383
REMARK  155  A    between atoms: _383  and  _384
REMARK  156  A    between atoms: _383  and  _386
REMARK  157  A    between atoms: _386  and  _387
REMARK  158  A    between atoms: _389  and  _391
REMARK  159  A    between atoms: _391  and  _392
REMARK  160  A    between atoms: _391  and  _394
REMARK  161  A    between atoms: _394  and  _395
REMARK  162  A    between atoms: _395  and  _505
REMARK  163  A    between atoms: _396  and  _398
REMARK  164  A    between atoms: _398  and  _399
REMARK  165  A    between atoms: _398  and  _401
REMARK  166  A    between atoms: _401  and  _402
REMARK  167  A    between atoms: _402  and  _403
REMARK  168  A    between atoms: _408  and  _410
REMARK  169  A    between atoms: _410  and  _411
REMARK  170  A    between atoms: _413  and  _415
REMARK  171  A    between atoms: _415  and  _416
REMARK  172  A    between atoms: _415  and  _418
REMARK  173  A    between atoms: _418  and  _419
REMARK  174  A    between atoms: _422  and  _424
REMARK  175  A    between atoms: _424  and  _425
REMARK  176  A    between atoms: _424  and  _427
REMARK  177  A    between atoms: _427  and  _428
REMARK  178  A    between atoms: _430  and  _432
REMARK  179  A    between atoms: _432  and  _433
REMARK  180  A    between atoms: _435  and  _437
REMARK  181  A    between atoms: _437  and  _438
REMARK  182  A    between atoms: _440  and  _442
REMARK  183  A    between atoms: _442  and  _443
REMARK  184  A    between atoms: _442  and  _445
REMARK  185  A    between atoms: _448  and  _450
REMARK  186  A    between atoms: _450  and  _451
REMARK  187  A    between atoms: _450  and  _453
REMARK  188  A    between atoms: _453  and  _454
REMARK  189  A    between atoms: _456  and  _458
REMARK  190  A    between atoms: _458  and  _459
REMARK  191  A    between atoms: _458  and  _461
REMARK  192  A    between atoms: _461  and  _462
REMARK  193  A    between atoms: _472  and  _474
REMARK  194  A    between atoms: _474  and  _475
REMARK  195  A    between atoms: _477  and  _479
REMARK  196  A    between atoms: _479  and  _480
REMARK  197  A    between atoms: _479  and  _482
REMARK  198  A    between atoms: _482  and  _483
REMARK  199  A    between atoms: _483  and  _484
REMARK  200  A    between atoms: _484  and  _485
REMARK  201  A    between atoms: _494  and  _496
REMARK  202  A    between atoms: _496  and  _497
REMARK  203  A    between atoms: _499  and  _501
REMARK  204  A    between atoms: _501  and  _502
REMARK  205  A    between atoms: _501  and  _504
REMARK  206  A    between atoms: _504  and  _505
REMARK  207  A    between atoms: _506  and  _508
REMARK  208  A    between atoms: _508  and  _509
REMARK  209  A    between atoms: _508  and  _511
REMARK  210  A    between atoms: _511  and  _512
REMARK  211  A    between atoms: _515  and  _517
REMARK  212  A    between atoms: _517  and  _518
REMARK  213  A    between atoms: _517  and  _520
REMARK  214  A    between atoms: _520  and  _521
REMARK  215  A    between atoms: _521  and  _522
REMARK  216  A    between atoms: _522  and  _523
REMARK  217  A    between atoms: _523  and  _524
REMARK  218  A    between atoms: _529  and  _530
REMARK  219  A    between atoms: _535  and  _537
REMARK  220  A    between atoms: _537  and  _538
REMARK  221  A    between atoms: _537  and  _540
REMARK                            x       y       z     vdW  Elec       q    Type
REMARK                         _______ _______ _______ _____ _____    ______ ____
ROOT
ATOM      1  C   TYR A   1       8.299 -44.793 -30.447  0.00  0.00    +0.239 C 
ATOM      2  N   TYR A   2       8.991 -44.693 -29.327  0.00  0.00    -0.298 N 
ATOM      3  H   TYR A   2       8.962 -45.458 -28.623  0.00  0.00    +0.150 HD
ATOM      4  O   TYR A   1       8.268 -43.904 -31.264  0.00  0.00    -0.274 OA
ENDROOT
BRANCH   1   5
ATOM      5  CA  TYR A   1       7.483 -46.060 -30.693  0.00  0.00    +0.149 C 
BRANCH   5   6
ATOM      6  N   TYR A   1       8.151 -46.819 -31.735  0.00  0.00    -0.238 NA
ATOM      7  H   TYR A   1       8.888 -47.506 -31.479  0.00  0.00    +0.142 HD
ENDBRANCH   5   6
BRANCH   5   8
ATOM      8  CB  TYR A   1       7.328 -46.853 -29.423  0.00  0.00    +0.053 C 
BRANCH   8   9
ATOM      9  CG  TYR A   1       6.186 -47.847 -29.400  0.00  0.00    -0.020 A 
ATOM     10  CD2 TYR A   1       5.476 -48.073 -28.250  0.00  0.00    -0.001 A 
ATOM     11  CE2 TYR A   1       4.452 -48.985 -28.198  0.00  0.00    +0.036 A 
ATOM     12  CZ  TYR A   1       4.128 -49.692 -29.298  0.00  0.00    +0.134 A 
ATOM     13  CE1 TYR A   1       4.820 -49.501 -30.448  0.00  0.00    +0.036 A 
ATOM     14  CD1 TYR A   1       5.843 -48.579 -30.501  0.00  0.00    -0.001 A 
BRANCH  12  15
ATOM     15  OH  TYR A   1       3.120 -50.593 -29.216  0.00  0.00    -0.506 OA
ATOM     16  HH  TYR A   1       3.343 -51.275 -28.534  0.00  0.00    +0.292 HD
ENDBRANCH  12  15
ENDBRANCH   8   9
ENDBRANCH   5   8
ENDBRANCH   1   5
BRANCH   2  17
ATOM     17  CA  TYR A   2       9.795 -43.504 -29.084  0.00  0.00    +0.141 C 
BRANCH  17  18
ATOM     18  C   TYR A   2      11.316 -43.645 -29.175  0.00  0.00    +0.227 C 
ATOM     19  O   TYR A   2      12.034 -42.682 -29.106  0.00  0.00    -0.286 OA
ENDBRANCH  17  18
BRANCH  17  20
ATOM     20  CB  TYR A   2       9.367 -42.807 -27.804  0.00  0.00    +0.054 C 
BRANCH  20  21
ATOM     21  CG  TYR A   2       8.023 -42.138 -27.910  0.00  0.00    -0.020 A 
ATOM     22  CD2 TYR A   2       7.046 -42.350 -26.962  0.00  0.00    -0.001 A 
ATOM     23  CE2 TYR A   2       5.822 -41.746 -27.056  0.00  0.00    +0.036 A 
ATOM     24  CZ  TYR A   2       5.552 -40.954 -28.113  0.00  0.00    +0.134 A 
ATOM     25  CE1 TYR A   2       6.489 -40.750 -29.069  0.00  0.00    +0.036 A 
ATOM     26  CD1 TYR A   2       7.718 -41.335 -28.970  0.00  0.00    -0.001 A 
BRANCH  24  27
ATOM     27  OH  TYR A   2       4.352 -40.355 -28.216  0.00  0.00    -0.506 OA
ATOM     28  HH  TYR A   2       3.642 -41.044 -28.245  0.00  0.00    +0.292 HD
ENDBRANCH  24  27
ENDBRANCH  20  21
ENDBRANCH  17  20
ENDBRANCH   2  17
TORSDOF 10
REMARK  Name = ../refined-set-2016/4zhm/4zhm_pocket.pdb
REMARK  221 active torsions:
REMARK  status: ('A' for Active; 'I' for Inactive)
REMARK    1  A    between atoms: _1  and  _3
REMARK    2  A    between atoms: _3  and  _4
REMARK    3  A    between atoms: _3  and  _6
REMARK    4  A    between atoms: _6  and  _7
REMARK    5  A    between atoms: _10  and  _12
REMARK    6  A    between atoms: _12  and  _13
REMARK    7  A    between atoms: _12  and  _15
REMARK    8  A    between atoms: _15  and  _16
REMARK    9  A    between atoms: _16  and  _17
REMARK   10  A    between atoms: _17  and  _18
REMARK   11  A    between atoms: _27  and  _29
REMARK   12  A    between atoms: _29  and  _30
REMARK   13  A    between atoms: _29  and  _32
REMARK   14  A    between atoms: _32  and  _33
REMARK   15  A    between atoms: _38  and  _40
REMARK   16  A    between atoms: _40  and  _41
REMARK   17  A    between atoms: _40  and  _43
REMARK   18  A    between atoms: _43  and  _44
REMARK   19  A    between atoms: _47  and  _49
REMARK   20  A    between atoms: _49  and  _50
REMARK   21  A    between atoms: _49  and  _52
REMARK   22  A    between atoms: _52  and  _53
REMARK   23  A    between atoms: _58  and  _59
REMARK   24  A    between atoms: _61  and  _63
REMARK   25  A    between atoms: _63  and  _64
REMARK   26  A    between atoms: _63  and  _66
REMARK   27  A    between atoms: _69  and  _71
REMARK   28  A    between atoms: _71  and  _72
REMARK   29  A    between atoms: _71  and  _74
REMARK   30  A    between atoms: _74  and  _75
REMARK   31  A    between atoms: _75  and  _113
REMARK   32  A    between atoms: _76  and  _78
REMARK   33  A    between atoms: _78  and  _79
REMARK   34  A    between atoms: _81  and  _83
REMARK   35  A    between atoms: _83  and  _84
REMARK   36  A    between atoms: _87  and  _89
REMARK   37  A    between atoms: _89  and  _90
REMARK   38  A    between atoms: _89  and  _92
REMARK   39  A    between atoms: _92  and  _93
REMARK   40  A    between atoms: _96  and  _98
REMARK   41  A    between atoms: _98  and  _99
REMARK   42  A    between atoms: _98  and  _101
REMARK   43  A    between atoms: _101  and  _102
REMARK   44  A    between atoms: _107  and  _109
REMARK   45  A    between atoms: _109  and  _110
REMARK   46  A    between atoms: _109  and  _112
REMARK   47  A    between atoms: _112  and  _113
REMARK   48  A    between atoms: _114  and  _116
REMARK   49  A    between atoms: _116  and  _117
REMARK   50  A    between atoms: _116  and  _119
REMARK   51  A    between atoms: _119  and  _120
REMARK   52  A    between atoms: _126  and  _128
REMARK   53  A    between atoms: _128  and  _129
REMARK   54  A    between atoms: _128  and  _131
REMARK   55  A    between atoms: _131  and  _132
REMARK   56  A    between atoms: _135  and  _137
REMARK   57  A    between atoms: _137  and  _138
REMARK   58  A    between atoms: _137  and  _140
REMARK   59  A    between atoms: _140  and  _141
REMARK   60  A    between atoms: _144  and  _146
REMARK   61  A    between atoms: _146  and  _147
REMARK   62  A    between atoms: _146  and  _149
REMARK   63  A    between atoms: _149  and  _150
REMARK   64  A    between atoms: _155  and  _156
REMARK   65  A    between atoms: _158  and  _160
REMARK   66  A    between atoms: _160  and  _161
REMARK   67  A    between atoms: _160  and  _163
REMARK   68  A    between atoms: _163  and  _164
REMARK   69  A    between atoms: _169  and  _170
REMARK   70  A    between atoms: _172  and  _174
REMARK   71  A    between atoms: _174  and  _175
REMARK   72  A    between atoms: _174  and  _177
REMARK   73  A    between atoms: _177  and  _178
REMARK   74  A    between atoms: _181  and  _183
REMARK   75  A    between atoms: _183  and  _184
REMARK   76  A    between atoms: _183  and  _186
REMARK   77  A    between atoms: _186  and  _187
REMARK   78  A    between atoms: _192  and  _193
REMARK   79  A    between atoms: _195  and  _197
REMARK   80  A    between atoms: _197  and  _198
REMARK   81  A    between atoms: _197  and  _200
REMARK   82  A    between atoms: _200  and  _201
REMARK   83  A    between atoms: _203  and  _205
REMARK   84  A    between atoms: _205  and  _206
REMARK   85  A    between atoms: _209  and  _211
REMARK   86  A    between atoms: _211  and  _212
REMARK   87  A    between atoms: _211  and  _214
REMARK   88  A    between atoms: _214  and  _215
REMARK   89  A    between atoms: _218  and  _220
REMARK   90  A    between atoms: _220  and  _221
REMARK   91  A    between atoms: _220  and  _223
REMARK   92  A    between atoms: _223  and  _224
REMARK   93  A    between atoms: _227  and  _229
REMARK   94  A    between atoms: _229  and  _230
REMARK   95  A    between atoms: _229  and  _232
REMARK   96  A    between atoms: _232  and  _233
REMARK   97  A    between atoms: _236  and  _238
REMARK   98  A    between atoms: _238  and  _239
REMARK   99  A    between atoms: _242  and  _244
REMARK  100  A    between atoms: _244  and  _245
REMARK  101  A    between atoms: _244  and  _247
REMARK  102  A    between atoms: _247  and  _248
REMARK  103  A    between atoms: _253  and  _254
REMARK  104  A    between atoms: _256  and  _258
REMARK  105  A    between atoms: _258  and  _259
REMARK  106  A    between atoms: _258  and  _261
REMARK  107  A    between atoms: _261  and  _262
REMARK  108  A    between atoms: _267  and  _269
REMARK  109  A    between atoms: _269  and  _270
REMARK  110  A    between atoms: _269  and  _272
REMARK  111  A    between atoms: _272  and  _273
REMARK  112  A    between atoms: _276  and  _278
REMARK  113  A    between atoms: _278  and  _279
REMARK  114  A    between atoms: _278  and  _281
REMARK  115  A    between atoms: _281  and  _282
REMARK  116  A    between atoms: _288  and  _290
REMARK  117  A    between atoms: _290  and  _291
REMARK  118  A    between atoms: _293  and  _295
REMARK  119  A    between atoms: _295  and  _296
REMARK  120  A    between atoms: _295  and  _298
REMARK  121  A    between atoms: _298  and  _299
REMARK  122  A    between atoms: _299  and  _300
REMARK  123  A    between atoms: _300  and  _301
REMARK  124  A    between atoms: _301  and  _302
REMARK  125  A    between atoms: _306  and  _308
REMARK  126  A    between atoms: _308  and  _309
REMARK  127  A    between atoms: _308  and  _311
REMARK  128  A    between atoms: _311  and  _312
REMARK  129  A    between atoms: _317  and  _318
REMARK  130  A    between atoms: _320  and  _322
REMARK  131  A    between atoms: _322  and  _323
REMARK  132  A    between atoms: _322  and  _325
REMARK  133  A    between atoms: _325  and  _326
REMARK  134  A    between atoms: _329  and  _331
REMARK  135  A    between atoms: _331  and  _332
REMARK  136  A    between atoms: _331  and  _334
REMARK  137  A    between atoms: _334  and  _335
REMARK  138  A    between atoms: _340  and  _341
REMARK  139  A    between atoms: _343  and  _345
REMARK  140  A    between atoms: _345  and  _346
REMARK  141  A    between atoms: _345  and  _348
REMARK  142  A    between atoms: _348  and  _349
REMARK  143  A    between atoms: _354  and  _355
REMARK  144  A    between atoms: _357  and  _359
REMARK  145  A    between atoms: _359  and  _360
REMARK  146  A    between atoms: _359  and  _362
REMARK  147  A    between atoms: _362  and  _363
REMARK  148  A    between atoms: _368  and  _369
REMARK  149  A    between atoms: _371  and  _373
REMARK  150  A    between atoms: _373  and  _374
REMARK  151  A    between atoms: _373  and  _376
REMARK  152  A    between atoms: _376  and  _377
REMARK  153  A    between atoms: _377  and  _378
REMARK  154  A    between atoms: _381  and  _383
REMARK  155  A    between atoms: _383  and  _384
REMARK  156  A    between atoms: _383  and  _386
REMARK  157  A    between atoms: _386  and  _387
REMARK  158  A    between atoms: _389  and  _391
REMARK  159  A    between atoms: _391  and  _392
REMARK  160  A    between atoms: _391  and  _394
REMARK  161  A    between atoms: _394  and  _395
REMARK  162  A    between atoms: _395  and  _505
REMARK  163  A    between atoms: _396  and  _398
REMARK  164  A    between atoms: _398  and  _399
REMARK  165  A    between atoms: _398  and  _401
REMARK  166  A    between atoms: _401  and  _402
REMARK  167  A    between atoms: _402  and  _403
REMARK  168  A    between atoms: _408  and  _410
REMARK  169  A    between atoms: _410  and  _411
REMARK  170  A    between atoms: _413  and  _415
REMARK  171  A    between atoms: _415  and  _416
REMARK  172  A    between atoms: _415  and  _418
REMARK  173  A    between atoms: _418  and  _419
REMARK  174  A    between atoms: _422  and  _424
REMARK  175  A    between atoms: _424  and  _425
REMARK  176  A    between atoms: _424  and  _427
REMARK  177  A    between atoms: _427  and  _428
REMARK  178  A    between atoms: _430  and  _432
REMARK  179  A    between atoms: _432  and  _433
REMARK  180  A    between atoms: _435  and  _437
REMARK  181  A    between atoms: _437  and  _438
REMARK  182  A    between atoms: _440  and  _442
REMARK  183  A    between atoms: _442  and  _443
REMARK  184  A    between atoms: _442  and  _445
REMARK  185  A    between atoms: _448  and  _450
REMARK  186  A    between atoms: _450  and  _451
REMARK  187  A    between atoms: _450  and  _453
REMARK  188  A    between atoms: _453  and  _454
REMARK  189  A    between atoms: _456  and  _458
REMARK  190  A    between atoms: _458  and  _459
REMARK  191  A    between atoms: _458  and  _461
REMARK  192  A    between atoms: _461  and  _462
REMARK  193  A    between atoms: _472  and  _474
REMARK  194  A    between atoms: _474  and  _475
REMARK  195  A    between atoms: _477  and  _479
REMARK  196  A    between atoms: _479  and  _480
REMARK  197  A    between atoms: _479  and  _482
REMARK  198  A    between atoms: _482  and  _483
REMARK  199  A    between atoms: _483  and  _484
REMARK  200  A    between atoms: _484  and  _485
REMARK  201  A    between atoms: _494  and  _496
REMARK  202  A    between atoms: _496  and  _497
REMARK  203  A    between atoms: _499  and  _501
REMARK  204  A    between atoms: _501  and  _502
REMARK  205  A    between atoms: _501  and  _504
REMARK  206  A    between atoms: _504  and  _505
REMARK  207  A    between atoms: _506  and  _508
REMARK  208  A    between atoms: _508  and  _509
REMARK  209  A    between atoms: _508  and  _511
REMARK  210  A    between atoms: _511  and  _512
REMARK  211  A    between atoms: _515  and  _517
REMARK  212  A    between atoms: _517  and  _518
REMARK  213  A    between atoms: _517  and  _520
REMARK  214  A    between atoms: _520  and  _521
REMARK  215  A    between atoms: _521  and  _522
REMARK  216  A    between atoms: _522  and  _523
REMARK  217  A    between atoms: _523  and  _524
REMARK  218  A    between atoms: _529  and  _530
REMARK  219  A    between atoms: _535  and  _537
REMARK  220  A    between atoms: _537  and  _538
REMARK  221  A    between atoms: _537  and  _540
REMARK                            x       y       z     vdW  Elec       q    Type
REMARK                         _______ _______ _______ _____ _____    ______ ____
ROOT
ATOM      1  CA  GLU A   1      13.926 -40.466 -26.279  0.00  0.00    +0.134 C 
ENDROOT
BRANCH   1   2
ATOM      2  N   GLU A   1      14.369 -41.674 -26.982  0.00  0.00    -0.239 NA
ATOM      3  H   GLU A   1      13.834 -42.009 -27.808  0.00  0.00    +0.142 HD
ENDBRANCH   1   2
BRANCH   1   4
ATOM      4  C   GLU A   1      13.183 -40.758 -24.968  0.00  0.00    +0.224 C 
ATOM      5  O   GLU A   1      12.989 -39.854 -24.160  0.00  0.00    -0.287 OA
ENDBRANCH   1   4
BRANCH   1   6
ATOM      6  CB  GLU A   1      13.066 -39.607 -27.211  0.00  0.00    +0.037 C 
BRANCH   6   7
ATOM      7  CG  GLU A   1      12.738 -38.207 -26.694  0.00  0.00    +0.116 C 
BRANCH   7   8
ATOM      8  CD  GLU A   1      13.952 -37.300 -26.529  0.00  0.00    +0.365 C 
ATOM      9  OE2 GLU A   1      14.757 -37.535 -25.600  0.00  0.00    -0.246 OA
ATOM     10  OE1 GLU A   1      14.089 -36.335 -27.313  0.00  0.00    -0.246 OA
ENDBRANCH   7   8
ENDBRANCH   6   7
ENDBRANCH   1   6
TORSDOF 5
REMARK  Name = ../refined-set-2016/4zhm/4zhm_pocket.pdb
REMARK  221 active torsions:
REMARK  status: ('A' for Active; 'I' for Inactive)
REMARK    1  A    between atoms: _1  and  _3
REMARK    2  A    between atoms: _3  and  _4
REMARK    3  A    between atoms: _3  and  _6
REMARK    4  A    between atoms: _6  and  _7
REMARK    5  A    between atoms: _10  and  _12
REMARK    6  A    between atoms: _12  and  _13
REMARK    7  A    between atoms: _12  and  _15
REMARK    8  A    between atoms: _15  and  _16
REMARK    9  A    between atoms: _16  and  _17
REMARK   10  A    between atoms: _17  and  _18
REMARK   11  A    between atoms: _27  and  _29
REMARK   12  A    between atoms: _29  and  _30
REMARK   13  A    between atoms: _29  and  _32
REMARK   14  A    between atoms: _32  and  _33
REMARK   15  A    between atoms: _38  and  _40
REMARK   16  A    between atoms: _40  and  _41
REMARK   17  A    between atoms: _40  and  _43
REMARK   18  A    between atoms: _43  and  _44
REMARK   19  A    between atoms: _47  and  _49
REMARK   20  A    between atoms: _49  and  _50
REMARK   21  A    between atoms: _49  and  _52
REMARK   22  A    between atoms: _52  and  _53
REMARK   23  A    between atoms: _58  and  _59
REMARK   24  A    between atoms: _61  and  _63
REMARK   25  A    between atoms: _63  and  _64
REMARK   26  A    between atoms: _63  and  _66
REMARK   27  A    between atoms: _69  and  _71
REMARK   28  A    between atoms: _71  and  _72
REMARK   29  A    between atoms: _71  and  _74
REMARK   30  A    between atoms: _74  and  _75
REMARK   31  A    between atoms: _75  and  _113
REMARK   32  A    between atoms: _76  and  _78
REMARK   33  A    between atoms: _78  and  _79
REMARK   34  A    between atoms: _81  and  _83
REMARK   35  A    between atoms: _83  and  _84
REMARK   36  A    between atoms: _87  and  _89
REMARK   37  A    between atoms: _89  and  _90
REMARK   38  A    between atoms: _89  and  _92
REMARK   39  A    between atoms: _92  and  _93
REMARK   40  A    between atoms: _96  and  _98
REMARK   41  A    between atoms: _98  and  _99
REMARK   42  A    between atoms: _98  and  _101
REMARK   43  A    between atoms: _101  and  _102
REMARK   44  A    between atoms: _107  and  _109
REMARK   45  A    between atoms: _109  and  _110
REMARK   46  A    between atoms: _109  and  _112
REMARK   47  A    between atoms: _112  and  _113
REMARK   48  A    between atoms: _114  and  _116
REMARK   49  A    between atoms: _116  and  _117
REMARK   50  A    between atoms: _116  and  _119
REMARK   51  A    between atoms: _119  and  _120
REMARK   52  A    between atoms: _126  and  _128
REMARK   53  A    between atoms: _128  and  _129
REMARK   54  A    between atoms: _128  and  _131
REMARK   55  A    between atoms: _131  and  _132
REMARK   56  A    between atoms: _135  and  _137
REMARK   57  A    between atoms: _137  and  _138
REMARK   58  A    between atoms: _137  and  _140
REMARK   59  A    between atoms: _140  and  _141
REMARK   60  A    between atoms: _144  and  _146
REMARK   61  A    between atoms: _146  and  _147
REMARK   62  A    between atoms: _146  and  _149
REMARK   63  A    between atoms: _149  and  _150
REMARK   64  A    between atoms: _155  and  _156
REMARK   65  A    between atoms: _158  and  _160
REMARK   66  A    between atoms: _160  and  _161
REMARK   67  A    between atoms: _160  and  _163
REMARK   68  A    between atoms: _163  and  _164
REMARK   69  A    between atoms: _169  and  _170
REMARK   70  A    between atoms: _172  and  _174
REMARK   71  A    between atoms: _174  and  _175
REMARK   72  A    between atoms: _174  and  _177
REMARK   73  A    between atoms: _177  and  _178
REMARK   74  A    between atoms: _181  and  _183
REMARK   75  A    between atoms: _183  and  _184
REMARK   76  A    between atoms: _183  and  _186
REMARK   77  A    between atoms: _186  and  _187
REMARK   78  A    between atoms: _192  and  _193
REMARK   79  A    between atoms: _195  and  _197
REMARK   80  A    between atoms: _197  and  _198
REMARK   81  A    between atoms: _197  and  _200
REMARK   82  A    between atoms: _200  and  _201
REMARK   83  A    between atoms: _203  and  _205
REMARK   84  A    between atoms: _205  and  _206
REMARK   85  A    between atoms: _209  and  _211
REMARK   86  A    between atoms: _211  and  _212
REMARK   87  A    between atoms: _211  and  _214
REMARK   88  A    between atoms: _214  and  _215
REMARK   89  A    between atoms: _218  and  _220
REMARK   90  A    between atoms: _220  and  _221
REMARK   91  A    between atoms: _220  and  _223
REMARK   92  A    between atoms: _223  and  _224
REMARK   93  A    between atoms: _227  and  _229
REMARK   94  A    between atoms: _229  and  _230
REMARK   95  A    between atoms: _229  and  _232
REMARK   96  A    between atoms: _232  and  _233
REMARK   97  A    between atoms: _236  and  _238
REMARK   98  A    between atoms: _238  and  _239
REMARK   99  A    between atoms: _242  and  _244
REMARK  100  A    between atoms: _244  and  _245
REMARK  101  A    between atoms: _244  and  _247
REMARK  102  A    between atoms: _247  and  _248
REMARK  103  A    between atoms: _253  and  _254
REMARK  104  A    between atoms: _256  and  _258
REMARK  105  A    between atoms: _258  and  _259
REMARK  106  A    between atoms: _258  and  _261
REMARK  107  A    between atoms: _261  and  _262
REMARK  108  A    between atoms: _267  and  _269
REMARK  109  A    between atoms: _269  and  _270
REMARK  110  A    between atoms: _269  and  _272
REMARK  111  A    between atoms: _272  and  _273
REMARK  112  A    between atoms: _276  and  _278
REMARK  113  A    between atoms: _278  and  _279
REMARK  114  A    between atoms: _278  and  _281
REMARK  115  A    between atoms: _281  and  _282
REMARK  116  A    between atoms: _288  and  _290
REMARK  117  A    between atoms: _290  and  _291
REMARK  118  A    between atoms: _293  and  _295
REMARK  119  A    between atoms: _295  and  _296
REMARK  120  A    between atoms: _295  and  _298
REMARK  121  A    between atoms: _298  and  _299
REMARK  122  A    between atoms: _299  and  _300
REMARK  123  A    between atoms: _300  and  _301
REMARK  124  A    between atoms: _301  and  _302
REMARK  125  A    between atoms: _306  and  _308
REMARK  126  A    between atoms: _308  and  _309
REMARK  127  A    between atoms: _308  and  _311
REMARK  128  A    between atoms: _311  and  _312
REMARK  129  A    between atoms: _317  and  _318
REMARK  130  A    between atoms: _320  and  _322
REMARK  131  A    between atoms: _322  and  _323
REMARK  132  A    between atoms: _322  and  _325
REMARK  133  A    between atoms: _325  and  _326
REMARK  134  A    between atoms: _329  and  _331
REMARK  135  A    between atoms: _331  and  _332
REMARK  136  A    between atoms: _331  and  _334
REMARK  137  A    between atoms: _334  and  _335
REMARK  138  A    between atoms: _340  and  _341
REMARK  139  A    between atoms: _343  and  _345
REMARK  140  A    between atoms: _345  and  _346
REMARK  141  A    between atoms: _345  and  _348
REMARK  142  A    between atoms: _348  and  _349
REMARK  143  A    between atoms: _354  and  _355
REMARK  144  A    between atoms: _357  and  _359
REMARK  145  A    between atoms: _359  and  _360
REMARK  146  A    between atoms: _359  and  _362
REMARK  147  A    between atoms: _362  and  _363
REMARK  148  A    between atoms: _368  and  _369
REMARK  149  A    between atoms: _371  and  _373
REMARK  150  A    between atoms: _373  and  _374
REMARK  151  A    between atoms: _373  and  _376
REMARK  152  A    between atoms: _376  and  _377
REMARK  153  A    between atoms: _377  and  _378
REMARK  154  A    between atoms: _381  and  _383
REMARK  155  A    between atoms: _383  and  _384
REMARK  156  A    between atoms: _383  and  _386
REMARK  157  A    between atoms: _386  and  _387
REMARK  158  A    between atoms: _389  and  _391
REMARK  159  A    between atoms: _391  and  _392
REMARK  160  A    between atoms: _391  and  _394
REMARK  161  A    between atoms: _394  and  _395
REMARK  162  A    between atoms: _395  and  _505
REMARK  163  A    between atoms: _396  and  _398
REMARK  164  A    between atoms: _398  and  _399
REMARK  165  A    between atoms: _398  and  _401
REMARK  166  A    between atoms: _401  and  _402
REMARK  167  A    between atoms: _402  and  _403
REMARK  168  A    between atoms: _408  and  _410
REMARK  169  A    between atoms: _410  and  _411
REMARK  170  A    between atoms: _413  and  _415
REMARK  171  A    between atoms: _415  and  _416
REMARK  172  A    between atoms: _415  and  _418
REMARK  173  A    between atoms: _418  and  _419
REMARK  174  A    between atoms: _422  and  _424
REMARK  175  A    between atoms: _424  and  _425
REMARK  176  A    between atoms: _424  and  _427
REMARK  177  A    between atoms: _427  and  _428
REMARK  178  A    between atoms: _430  and  _432
REMARK  179  A    between atoms: _432  and  _433
REMARK  180  A    between atoms: _435  and  _437
REMARK  181  A    between atoms: _437  and  _438
REMARK  182  A    between atoms: _440  and  _442
REMARK  183  A    between atoms: _442  and  _443
REMARK  184  A    between atoms: _442  and  _445
REMARK  185  A    between atoms: _448  and  _450
REMARK  186  A    between atoms: _450  and  _451
REMARK  187  A    between atoms: _450  and  _453
REMARK  188  A    between atoms: _453  and  _454
REMARK  189  A    between atoms: _456  and  _458
REMARK  190  A    between atoms: _458  and  _459
REMARK  191  A    between atoms: _458  and  _461
REMARK  192  A    between atoms: _461  and  _462
REMARK  193  A    between atoms: _472  and  _474
REMARK  194  A    between atoms: _474  and  _475
REMARK  195  A    between atoms: _477  and  _479
REMARK  196  A    between atoms: _479  and  _480
REMARK  197  A    between atoms: _479  and  _482
REMARK  198  A    between atoms: _482  and  _483
REMARK  199  A    between atoms: _483  and  _484
REMARK  200  A    between atoms: _484  and  _485
REMARK  201  A    between atoms: _494  and  _496
REMARK  202  A    between atoms: _496  and  _497
REMARK  203  A    between atoms: _499  and  _501
REMARK  204  A    between atoms: _501  and  _502
REMARK  205  A    between atoms: _501  and  _504
REMARK  206  A    between atoms: _504  and  _505
REMARK  207  A    between atoms: _506  and  _508
REMARK  208  A    between atoms: _508  and  _509
REMARK  209  A    between atoms: _508  and  _511
REMARK  210  A    between atoms: _511  and  _512
REMARK  211  A    between atoms: _515  and  _517
REMARK  212  A    between atoms: _517  and  _518
REMARK  213  A    between atoms: _517  and  _520
REMARK  214  A    between atoms: _520  and  _521
REMARK  215  A    between atoms: _521  and  _522
REMARK  216  A    between atoms: _522  and  _523
REMARK  217  A    between atoms: _523  and  _524
REMARK  218  A    between atoms: _529  and  _530
REMARK  219  A    between atoms: _535  and  _537
REMARK  220  A    between atoms: _537  and  _538
REMARK  221  A    between atoms: _537  and  _540
REMARK                            x       y       z     vdW  Elec       q    Type
REMARK                         _______ _______ _______ _____ _____    ______ ____
ROOT
ATOM      1  CA  CYS A   7      -2.908 -37.705 -29.381  0.00  0.00    +0.149 C 
ENDROOT
BRANCH   1   2
ATOM      2  N   CYS A   7      -2.228 -37.145 -30.492  0.00  0.00    -0.297 N 
ATOM      3  C   GLY A   6      -0.977 -36.698 -30.389  0.00  0.00    +0.243 C 
ATOM      4  O   GLY A   6      -0.401 -36.599 -29.351  0.00  0.00    -0.273 OA
ATOM      5  H   CYS A   7      -2.717 -37.082 -31.408  0.00  0.00    +0.150 HD
BRANCH   3   6
ATOM      6  CA  GLY A   6      -0.227 -36.330 -31.666  0.00  0.00    +0.176 C 
BRANCH   6   7
ATOM      7  N   GLY A   6       1.182 -36.656 -31.534  0.00  0.00    -0.295 N 
ATOM      8  C   ARG A   5       2.012 -37.789 -30.874  0.00  0.00    +0.241 C 
ATOM      9  O   ARG A   5       1.562 -38.821 -30.486  0.00  0.00    -0.273 OA
ATOM     10  H   GLY A   6       1.789 -35.951 -32.000  0.00  0.00    +0.150 HD
BRANCH   8  11
ATOM     11  CA  ARG A   5       3.344 -37.329 -30.431  0.00  0.00    +0.149 C 
BRANCH  11  12
ATOM     12  N   ARG A   5       3.593 -37.745 -29.069  0.00  0.00    -0.297 N 
ATOM     13  C   GLY A   4       3.389 -36.914 -28.068  0.00  0.00    +0.243 C 
ATOM     14  O   GLY A   4       2.991 -35.761 -28.246  0.00  0.00    -0.273 OA
ATOM     15  H   ARG A   5       3.936 -38.708 -28.878  0.00  0.00    +0.150 HD
BRANCH  13  16
ATOM     16  CA  GLY A   4       3.629 -37.449 -26.663  0.00  0.00    +0.176 C 
BRANCH  16  17
ATOM     17  N   GLY A   4       3.964 -36.390 -25.731  0.00  0.00    -0.295 N 
ATOM     18  C   TRP A   3       4.154 -36.607 -24.431  0.00  0.00    +0.241 C 
ATOM     19  O   TRP A   3       3.950 -37.696 -23.890  0.00  0.00    -0.273 OA
ATOM     20  H   GLY A   4       4.060 -35.420 -26.093  0.00  0.00    +0.150 HD
BRANCH  18  21
ATOM     21  CA  TRP A   3       4.614 -35.395 -23.629  0.00  0.00    +0.153 C 
BRANCH  21  22
ATOM     22  N   TRP A   3       4.489 -35.556 -22.174  0.00  0.00    -0.297 N 
ATOM     23  C   SER A   2       4.428 -34.507 -21.360  0.00  0.00    +0.243 C 
ATOM     24  O   SER A   2       4.497 -33.359 -21.762  0.00  0.00    -0.273 OA
ATOM     25  H   TRP A   3       4.447 -36.514 -21.771  0.00  0.00    +0.150 HD
BRANCH  23  26
ATOM     26  CA  SER A   2       4.350 -34.765 -19.853  0.00  0.00    +0.178 C 
BRANCH  26  27
ATOM     27  N   SER A   2       3.167 -35.516 -19.400  0.00  0.00    -0.295 N 
ATOM     28  C   VAL A   1       2.312 -34.989 -18.524  0.00  0.00    +0.238 C 
ATOM     29  O   VAL A   1       2.396 -33.817 -18.150  0.00  0.00    -0.274 OA
ATOM     30  H   SER A   2       2.996 -36.473 -19.770  0.00  0.00    +0.150 HD
BRANCH  28  31
ATOM     31  CA  VAL A   1       1.175 -35.892 -18.003  0.00  0.00    +0.145 C 
BRANCH  31  32
ATOM     32  CB  VAL A   1      -0.173 -35.281 -18.445  0.00  0.00    +0.025 C 
ATOM     33  CG2 VAL A   1      -1.371 -36.065 -17.916  0.00  0.00    +0.002 C 
ATOM     34  CG1 VAL A   1      -0.242 -35.223 -19.962  0.00  0.00    +0.002 C 
ENDBRANCH  31  32
BRANCH  31  35
ATOM     35  N   VAL A   1       1.264 -36.020 -16.539  0.00  0.00    -0.238 NA
ATOM     36  H   VAL A   1       0.444 -35.754 -15.958  0.00  0.00    +0.142 HD
ENDBRANCH  31  35
ENDBRANCH  28  31
ENDBRANCH  26  27
BRANCH  26  37
ATOM     37  CB  SER A   2       5.645 -35.425 -19.372  0.00  0.00    +0.166 C 
BRANCH  37  38
ATOM     38  OG  SER A   2       6.772 -34.655 -19.782  0.00  0.00    -0.380 OA
ATOM     39  H   SER A   2       7.602 -35.092 -19.465  0.00  0.00    +0.211 HD
ENDBRANCH  37  38
ENDBRANCH  26  37
ENDBRANCH  23  26
ENDBRANCH  21  22
BRANCH  21  40
ATOM     40  CB  TRP A   3       6.059 -35.029 -24.004  0.00  0.00    +0.057 C 
BRANCH  40  41
ATOM     41  CG  TRP A   3       7.073 -36.070 -23.617  0.00  0.00    -0.002 A 
ATOM     42  CD1 TRP A   3       7.643 -36.233 -22.401  0.00  0.00    +0.068 A 
ATOM     43  NE1 TRP A   3       8.538 -37.294 -22.434  0.00  0.00    -0.352 N 
ATOM     44  HE1 TRP A   3       9.116 -37.623 -21.634  0.00  0.00    +0.166 HD
ATOM     45  CE2 TRP A   3       8.536 -37.836 -23.688  0.00  0.00    +0.056 A 
ATOM     46  CZ2 TRP A   3       9.263 -38.918 -24.210  0.00  0.00    +0.017 A 
ATOM     47  CH2 TRP A   3       9.055 -39.239 -25.526  0.00  0.00    +0.001 A 
ATOM     48  CZ3 TRP A   3       8.156 -38.512 -26.323  0.00  0.00    +0.000 A 
ATOM     49  CE3 TRP A   3       7.446 -37.439 -25.808  0.00  0.00    +0.001 A 
ATOM     50  CD2 TRP A   3       7.628 -37.091 -24.466  0.00  0.00    +0.013 A 
ENDBRANCH  40  41
ENDBRANCH  21  40
ENDBRANCH  18  21
ENDBRANCH  16  17
ENDBRANCH  13  16
ENDBRANCH  11  12
BRANCH  11  51
ATOM     51  CB  ARG A   5       4.365 -37.912 -31.376  0.00  0.00    +0.033 C 
BRANCH  51  52
ATOM     52  CG  ARG A   5       4.093 -37.581 -32.831  0.00  0.00    +0.045 C 
BRANCH  52  53
ATOM     53  CD  ARG A   5       5.129 -38.132 -33.800  0.00  0.00    +0.174 C 
BRANCH  53  54
ATOM     54  NE  ARG A   5       6.355 -38.509 -33.132  0.00  0.00    -0.265 N 
ATOM     55  HE  ARG A   5       6.527 -38.116 -32.185  0.00  0.00    +0.259 HD
ATOM     56  CZ  ARG A   5       7.268 -39.311 -33.632  0.00  0.00    +0.342 C 
ATOM     57  NH2 ARG A   5       8.313 -39.607 -32.905  0.00  0.00    -0.292 N 
ATOM     58 HH21 ARG A   5       8.411 -39.210 -31.949  0.00  0.00    +0.255 HD
ATOM     59 HH22 ARG A   5       9.047 -40.240 -33.283  0.00  0.00    +0.255 HD
ATOM     60  NH1 ARG A   5       7.131 -39.799 -34.859  0.00  0.00    -0.292 N 
ATOM     61 HH11 ARG A   5       7.856 -40.433 -35.250  0.00  0.00    +0.255 HD
ATOM     62 HH12 ARG A   5       6.298 -39.547 -35.429  0.00  0.00    +0.255 HD
ENDBRANCH  53  54
ENDBRANCH  52  53
ENDBRANCH  51  52
ENDBRANCH  11  51
ENDBRANCH   8  11
ENDBRANCH   6   7
ENDBRANCH   3   6
ENDBRANCH   1   2
BRANCH   1  63
ATOM     63  C   CYS A   7      -3.639 -38.892 -29.953  0.00  0.00    +0.228 C 
ATOM     64  O   CYS A   7      -4.234 -38.774 -30.984  0.00  0.00    -0.286 OA
ENDBRANCH   1  63
BRANCH   1  65
ATOM     65  CB  CYS A   7      -3.865 -36.674 -28.849  0.00  0.00    +0.096 C 
BRANCH  65  66
ATOM     66  SG  CYS A   7      -3.067 -35.108 -28.657  0.00  0.00    -0.080 S 
BRANCH  66  67
ATOM     67  SG  SER A   2      -4.639 -33.854 -28.032  0.00  0.00    -0.080 S 
BRANCH  67  68
ATOM     68  CB  SER A   2      -5.024 -34.383 -26.332  0.00  0.00    +0.098 C 
BRANCH  68  69
ATOM     69  CA  SER A   2      -3.814 -34.470 -25.393  0.00  0.00    +0.160 C 
BRANCH  69  71
ATOM     70  C   VAL A   1      -3.889 -36.632 -24.289  0.00  0.00    +0.241 C 
ATOM     71  N   SER A   2      -4.112 -35.328 -24.253  0.00  0.00    -0.296 N 
ATOM     72  H   SER A   2      -4.510 -34.905 -23.390  0.00  0.00    +0.150 HD
ATOM     73  O   VAL A   1      -3.382 -37.192 -25.256  0.00  0.00    -0.274 OA
BRANCH  70  74
ATOM     74  CA  VAL A   1      -4.306 -37.437 -23.062  0.00  0.00    +0.174 C 
BRANCH  74  75
ATOM     75  N   VAL A   1      -4.422 -38.837 -23.466  0.00  0.00    -0.236 NA
ATOM     76  H   VAL A   1      -3.639 -39.491 -23.262  0.00  0.00    +0.142 HD
ENDBRANCH  74  75
BRANCH  74  77
ATOM     77  CB  VAL A   1      -3.286 -37.260 -21.930  0.00  0.00    +0.163 C 
BRANCH  77  78
ATOM     78  O   VAL A   1      -2.075 -37.962 -22.188  0.00  0.00    -0.380 OA
ATOM     79  H   VAL A   1      -2.269 -38.928 -22.282  0.00  0.00    +0.211 HD
ENDBRANCH  77  78
ENDBRANCH  74  77
ENDBRANCH  70  74
ENDBRANCH  69  71
BRANCH  69  80
ATOM     80  C   SER A   2      -3.422 -33.098 -24.890  0.00  0.00    +0.242 C 
ATOM     81  O   SER A   2      -3.298 -32.881 -23.675  0.00  0.00    -0.273 OA
ATOM     82  N   TRP A   3      -3.220 -32.166 -25.819  0.00  0.00    -0.297 N 
ATOM     83  H   TRP A   3      -3.384 -32.398 -26.819  0.00  0.00    +0.150 HD
BRANCH  82  84
ATOM     84  CA  TRP A   3      -2.771 -30.820 -25.458  0.00  0.00    +0.149 C 
BRANCH  84  85
ATOM     85  C   TRP A   3      -3.685 -30.202 -24.415  0.00  0.00    +0.241 C 
ATOM     86  N   GLY A   4      -3.107 -29.693 -23.329  0.00  0.00    -0.295 N 
ATOM     87  H   GLY A   4      -2.070 -29.711 -23.252  0.00  0.00    +0.150 HD
ATOM     88  O   TRP A   3      -4.888 -30.204 -24.586  0.00  0.00    -0.273 OA
BRANCH  86  89
ATOM     89  CA  GLY A   4      -3.891 -29.110 -22.242  0.00  0.00    +0.176 C 
BRANCH  89  90
ATOM     90  C   GLY A   4      -4.176 -30.049 -21.080  0.00  0.00    +0.243 C 
ATOM     91  O   GLY A   4      -4.654 -29.601 -20.041  0.00  0.00    -0.273 OA
ATOM     92  N   ARG A   5      -3.880 -31.340 -21.243  0.00  0.00    -0.296 N 
ATOM     93  H   ARG A   5      -3.627 -31.683 -22.191  0.00  0.00    +0.150 HD
BRANCH  92  94
ATOM     94  CA  ARG A   5      -3.901 -32.286 -20.130  0.00  0.00    +0.160 C 
BRANCH  94  95
ATOM     95  C   ARG A   5      -2.572 -32.281 -19.374  0.00  0.00    +0.241 C 
ATOM     96  O   ARG A   5      -2.450 -32.898 -18.325  0.00  0.00    -0.273 OA
ATOM     97  N   GLY A   6      -1.567 -31.563 -19.884  0.00  0.00    -0.295 N 
ATOM     98  H   GLY A   6      -1.718 -30.983 -20.734  0.00  0.00    +0.150 HD
BRANCH  97  99
ATOM     99  CA  GLY A   6      -0.267 -31.597 -19.248  0.00  0.00    +0.178 C 
BRANCH  99 100
ATOM    100  C   GLY A   6      -0.290 -31.112 -17.782  0.00  0.00    +0.243 C 
ATOM    101  N   CYS A   7       0.573 -31.703 -16.969  0.00  0.00    -0.295 N 
ATOM    102  H   CYS A   7       1.241 -32.396 -17.363  0.00  0.00    +0.150 HD
ATOM    103  O   GLY A   6      -1.068 -30.231 -17.401  0.00  0.00    -0.273 OA
BRANCH 101 104
ATOM    104  CA  CYS A   7       0.618 -31.418 -15.555  0.00  0.00    +0.176 C 
BRANCH 104 105
ATOM    105  C   CYS A   7      -0.351 -32.266 -14.754  0.00  0.00    +0.243 C 
ATOM    106  O   CYS A   7      -0.196 -32.383 -13.539  0.00  0.00    -0.273 OA
ATOM    107  N   GLY A   8      -1.344 -32.860 -15.417  0.00  0.00    -0.296 N 
ATOM    108  H   GLY A   8      -1.390 -32.751 -16.450  0.00  0.00    +0.150 HD
BRANCH 107 109
ATOM    109  CA  GLY A   8      -2.372 -33.660 -14.747  0.00  0.00    +0.163 C 
BRANCH 109 110
ATOM    110  C   GLY A   8      -1.962 -35.083 -14.361  0.00  0.00    +0.229 C 
ATOM    111  O   GLY A   8      -0.898 -35.555 -14.749  0.00  0.00    -0.286 OA
ENDBRANCH 109 110
ENDBRANCH 107 109
ENDBRANCH 104 105
ENDBRANCH 101 104
ENDBRANCH  99 100
BRANCH  99 112
ATOM    112  CB  GLY A   6       0.746 -30.814 -20.082  0.00  0.00    +0.166 C 
BRANCH 112 113
ATOM    113  O   GLY A   6       0.628 -29.419 -19.845  0.00  0.00    -0.380 OA
ATOM    114  H   GLY A   6      -0.284 -29.120 -20.088  0.00  0.00    +0.211 HD
ENDBRANCH 112 113
ENDBRANCH  99 112
ENDBRANCH  97  99
ENDBRANCH  94  95
BRANCH  94 115
ATOM    115  CB  ARG A   5      -4.210 -33.705 -20.634  0.00  0.00    +0.143 C 
BRANCH 115 116
ATOM    116  CG  ARG A   5      -5.641 -33.857 -21.104  0.00  0.00    +0.367 C 
ATOM    117  OD2 ARG A   5      -6.553 -33.287 -20.447  0.00  0.00    -0.246 OA
ATOM    118  OD1 ARG A   5      -5.868 -34.566 -22.117  0.00  0.00    -0.246 OA
ENDBRANCH 115 116
ENDBRANCH  94 115
ENDBRANCH  92  94
ENDBRANCH  89  90
ENDBRANCH  86  89
ENDBRANCH  84  85
BRANCH  84 119
ATOM    119  CB  TRP A   3      -2.706 -29.928 -26.692  0.00  0.00    +0.039 C 
BRANCH 119 120
ATOM    120  CG  TRP A   3      -2.284 -28.487 -26.412  0.00  0.00    +0.087 C 
BRANCH 120 121
ATOM    121  CD  TRP A   3      -1.989 -27.727 -27.688  0.00  0.00    +0.219 C 
ATOM    122  NE2 TRP A   3      -1.212 -26.660 -27.588  0.00  0.00    -0.329 N 
ATOM    123 HE21 TRP A   3      -0.816 -26.390 -26.665  0.00  0.00    +0.145 HD
ATOM    124 HE22 TRP A   3      -0.997 -26.092 -28.432  0.00  0.00    +0.145 HD
ATOM    125  OE1 TRP A   3      -2.478 -28.086 -28.748  0.00  0.00    -0.275 OA
ENDBRANCH 120 121
ENDBRANCH 119 120
ENDBRANCH  84 119
ENDBRANCH  82  84
ENDBRANCH  69  80
ENDBRANCH  68  69
ENDBRANCH  67  68
ENDBRANCH  66  67
ENDBRANCH  65  66
ENDBRANCH   1  65
TORSDOF 53
REMARK  Name = ../refined-set-2016/4zhm/4zhm_pocket.pdb
REMARK  221 active torsions:
REMARK  status: ('A' for Active; 'I' for Inactive)
REMARK    1  A    between atoms: _1  and  _3
REMARK    2  A    between atoms: _3  and  _4
REMARK    3  A    between atoms: _3  and  _6
REMARK    4  A    between atoms: _6  and  _7
REMARK    5  A    between atoms: _10  and  _12
REMARK    6  A    between atoms: _12  and  _13
REMARK    7  A    between atoms: _12  and  _15
REMARK    8  A    between atoms: _15  and  _16
REMARK    9  A    between atoms: _16  and  _17
REMARK   10  A    between atoms: _17  and  _18
REMARK   11  A    between atoms: _27  and  _29
REMARK   12  A    between atoms: _29  and  _30
REMARK   13  A    between atoms: _29  and  _32
REMARK   14  A    between atoms: _32  and  _33
REMARK   15  A    between atoms: _38  and  _40
REMARK   16  A    between atoms: _40  and  _41
REMARK   17  A    between atoms: _40  and  _43
REMARK   18  A    between atoms: _43  and  _44
REMARK   19  A    between atoms: _47  and  _49
REMARK   20  A    between atoms: _49  and  _50
REMARK   21  A    between atoms: _49  and  _52
REMARK   22  A    between atoms: _52  and  _53
REMARK   23  A    between atoms: _58  and  _59
REMARK   24  A    between atoms: _61  and  _63
REMARK   25  A    between atoms: _63  and  _64
REMARK   26  A    between atoms: _63  and  _66
REMARK   27  A    between atoms: _69  and  _71
REMARK   28  A    between atoms: _71  and  _72
REMARK   29  A    between atoms: _71  and  _74
REMARK   30  A    between atoms: _74  and  _75
REMARK   31  A    between atoms: _75  and  _113
REMARK   32  A    between atoms: _76  and  _78
REMARK   33  A    between atoms: _78  and  _79
REMARK   34  A    between atoms: _81  and  _83
REMARK   35  A    between atoms: _83  and  _84
REMARK   36  A    between atoms: _87  and  _89
REMARK   37  A    between atoms: _89  and  _90
REMARK   38  A    between atoms: _89  and  _92
REMARK   39  A    between atoms: _92  and  _93
REMARK   40  A    between atoms: _96  and  _98
REMARK   41  A    between atoms: _98  and  _99
REMARK   42  A    between atoms: _98  and  _101
REMARK   43  A    between atoms: _101  and  _102
REMARK   44  A    between atoms: _107  and  _109
REMARK   45  A    between atoms: _109  and  _110
REMARK   46  A    between atoms: _109  and  _112
REMARK   47  A    between atoms: _112  and  _113
REMARK   48  A    between atoms: _114  and  _116
REMARK   49  A    between atoms: _116  and  _117
REMARK   50  A    between atoms: _116  and  _119
REMARK   51  A    between atoms: _119  and  _120
REMARK   52  A    between atoms: _126  and  _128
REMARK   53  A    between atoms: _128  and  _129
REMARK   54  A    between atoms: _128  and  _131
REMARK   55  A    between atoms: _131  and  _132
REMARK   56  A    between atoms: _135  and  _137
REMARK   57  A    between atoms: _137  and  _138
REMARK   58  A    between atoms: _137  and  _140
REMARK   59  A    between atoms: _140  and  _141
REMARK   60  A    between atoms: _144  and  _146
REMARK   61  A    between atoms: _146  and  _147
REMARK   62  A    between atoms: _146  and  _149
REMARK   63  A    between atoms: _149  and  _150
REMARK   64  A    between atoms: _155  and  _156
REMARK   65  A    between atoms: _158  and  _160
REMARK   66  A    between atoms: _160  and  _161
REMARK   67  A    between atoms: _160  and  _163
REMARK   68  A    between atoms: _163  and  _164
REMARK   69  A    between atoms: _169  and  _170
REMARK   70  A    between atoms: _172  and  _174
REMARK   71  A    between atoms: _174  and  _175
REMARK   72  A    between atoms: _174  and  _177
REMARK   73  A    between atoms: _177  and  _178
REMARK   74  A    between atoms: _181  and  _183
REMARK   75  A    between atoms: _183  and  _184
REMARK   76  A    between atoms: _183  and  _186
REMARK   77  A    between atoms: _186  and  _187
REMARK   78  A    between atoms: _192  and  _193
REMARK   79  A    between atoms: _195  and  _197
REMARK   80  A    between atoms: _197  and  _198
REMARK   81  A    between atoms: _197  and  _200
REMARK   82  A    between atoms: _200  and  _201
REMARK   83  A    between atoms: _203  and  _205
REMARK   84  A    between atoms: _205  and  _206
REMARK   85  A    between atoms: _209  and  _211
REMARK   86  A    between atoms: _211  and  _212
REMARK   87  A    between atoms: _211  and  _214
REMARK   88  A    between atoms: _214  and  _215
REMARK   89  A    between atoms: _218  and  _220
REMARK   90  A    between atoms: _220  and  _221
REMARK   91  A    between atoms: _220  and  _223
REMARK   92  A    between atoms: _223  and  _224
REMARK   93  A    between atoms: _227  and  _229
REMARK   94  A    between atoms: _229  and  _230
REMARK   95  A    between atoms: _229  and  _232
REMARK   96  A    between atoms: _232  and  _233
REMARK   97  A    between atoms: _236  and  _238
REMARK   98  A    between atoms: _238  and  _239
REMARK   99  A    between atoms: _242  and  _244
REMARK  100  A    between atoms: _244  and  _245
REMARK  101  A    between atoms: _244  and  _247
REMARK  102  A    between atoms: _247  and  _248
REMARK  103  A    between atoms: _253  and  _254
REMARK  104  A    between atoms: _256  and  _258
REMARK  105  A    between atoms: _258  and  _259
REMARK  106  A    between atoms: _258  and  _261
REMARK  107  A    between atoms: _261  and  _262
REMARK  108  A    between atoms: _267  and  _269
REMARK  109  A    between atoms: _269  and  _270
REMARK  110  A    between atoms: _269  and  _272
REMARK  111  A    between atoms: _272  and  _273
REMARK  112  A    between atoms: _276  and  _278
REMARK  113  A    between atoms: _278  and  _279
REMARK  114  A    between atoms: _278  and  _281
REMARK  115  A    between atoms: _281  and  _282
REMARK  116  A    between atoms: _288  and  _290
REMARK  117  A    between atoms: _290  and  _291
REMARK  118  A    between atoms: _293  and  _295
REMARK  119  A    between atoms: _295  and  _296
REMARK  120  A    between atoms: _295  and  _298
REMARK  121  A    between atoms: _298  and  _299
REMARK  122  A    between atoms: _299  and  _300
REMARK  123  A    between atoms: _300  and  _301
REMARK  124  A    between atoms: _301  and  _302
REMARK  125  A    between atoms: _306  and  _308
REMARK  126  A    between atoms: _308  and  _309
REMARK  127  A    between atoms: _308  and  _311
REMARK  128  A    between atoms: _311  and  _312
REMARK  129  A    between atoms: _317  and  _318
REMARK  130  A    between atoms: _320  and  _322
REMARK  131  A    between atoms: _322  and  _323
REMARK  132  A    between atoms: _322  and  _325
REMARK  133  A    between atoms: _325  and  _326
REMARK  134  A    between atoms: _329  and  _331
REMARK  135  A    between atoms: _331  and  _332
REMARK  136  A    between atoms: _331  and  _334
REMARK  137  A    between atoms: _334  and  _335
REMARK  138  A    between atoms: _340  and  _341
REMARK  139  A    between atoms: _343  and  _345
REMARK  140  A    between atoms: _345  and  _346
REMARK  141  A    between atoms: _345  and  _348
REMARK  142  A    between atoms: _348  and  _349
REMARK  143  A    between atoms: _354  and  _355
REMARK  144  A    between atoms: _357  and  _359
REMARK  145  A    between atoms: _359  and  _360
REMARK  146  A    between atoms: _359  and  _362
REMARK  147  A    between atoms: _362  and  _363
REMARK  148  A    between atoms: _368  and  _369
REMARK  149  A    between atoms: _371  and  _373
REMARK  150  A    between atoms: _373  and  _374
REMARK  151  A    between atoms: _373  and  _376
REMARK  152  A    between atoms: _376  and  _377
REMARK  153  A    between atoms: _377  and  _378
REMARK  154  A    between atoms: _381  and  _383
REMARK  155  A    between atoms: _383  and  _384
REMARK  156  A    between atoms: _383  and  _386
REMARK  157  A    between atoms: _386  and  _387
REMARK  158  A    between atoms: _389  and  _391
REMARK  159  A    between atoms: _391  and  _392
REMARK  160  A    between atoms: _391  and  _394
REMARK  161  A    between atoms: _394  and  _395
REMARK  162  A    between atoms: _395  and  _505
REMARK  163  A    between atoms: _396  and  _398
REMARK  164  A    between atoms: _398  and  _399
REMARK  165  A    between atoms: _398  and  _401
REMARK  166  A    between atoms: _401  and  _402
REMARK  167  A    between atoms: _402  and  _403
REMARK  168  A    between atoms: _408  and  _410
REMARK  169  A    between atoms: _410  and  _411
REMARK  170  A    between atoms: _413  and  _415
REMARK  171  A    between atoms: _415  and  _416
REMARK  172  A    between atoms: _415  and  _418
REMARK  173  A    between atoms: _418  and  _419
REMARK  174  A    between atoms: _422  and  _424
REMARK  175  A    between atoms: _424  and  _425
REMARK  176  A    between atoms: _424  and  _427
REMARK  177  A    between atoms: _427  and  _428
REMARK  178  A    between atoms: _430  and  _432
REMARK  179  A    between atoms: _432  and  _433
REMARK  180  A    between atoms: _435  and  _437
REMARK  181  A    between atoms: _437  and  _438
REMARK  182  A    between atoms: _440  and  _442
REMARK  183  A    between atoms: _442  and  _443
REMARK  184  A    between atoms: _442  and  _445
REMARK  185  A    between atoms: _448  and  _450
REMARK  186  A    between atoms: _450  and  _451
REMARK  187  A    between atoms: _450  and  _453
REMARK  188  A    between atoms: _453  and  _454
REMARK  189  A    between atoms: _456  and  _458
REMARK  190  A    between atoms: _458  and  _459
REMARK  191  A    between atoms: _458  and  _461
REMARK  192  A    between atoms: _461  and  _462
REMARK  193  A    between atoms: _472  and  _474
REMARK  194  A    between atoms: _474  and  _475
REMARK  195  A    between atoms: _477  and  _479
REMARK  196  A    between atoms: _479  and  _480
REMARK  197  A    between atoms: _479  and  _482
REMARK  198  A    between atoms: _482  and  _483
REMARK  199  A    between atoms: _483  and  _484
REMARK  200  A    between atoms: _484  and  _485
REMARK  201  A    between atoms: _494  and  _496
REMARK  202  A    between atoms: _496  and  _497
REMARK  203  A    between atoms: _499  and  _501
REMARK  204  A    between atoms: _501  and  _502
REMARK  205  A    between atoms: _501  and  _504
REMARK  206  A    between atoms: _504  and  _505
REMARK  207  A    between atoms: _506  and  _508
REMARK  208  A    between atoms: _508  and  _509
REMARK  209  A    between atoms: _508  and  _511
REMARK  210  A    between atoms: _511  and  _512
REMARK  211  A    between atoms: _515  and  _517
REMARK  212  A    between atoms: _517  and  _518
REMARK  213  A    between atoms: _517  and  _520
REMARK  214  A    between atoms: _520  and  _521
REMARK  215  A    between atoms: _521  and  _522
REMARK  216  A    between atoms: _522  and  _523
REMARK  217  A    between atoms: _523  and  _524
REMARK  218  A    between atoms: _529  and  _530
REMARK  219  A    between atoms: _535  and  _537
REMARK  220  A    between atoms: _537  and  _538
REMARK  221  A    between atoms: _537  and  _540
REMARK                            x       y       z     vdW  Elec       q    Type
REMARK                         _______ _______ _______ _____ _____    ______ ____
ROOT
ATOM      1  CA  LEU A   1      -1.945 -41.881 -32.687  0.00  0.00    +0.133 C 
ENDROOT
BRANCH   1   2
ATOM      2  N   LEU A   1      -2.522 -41.560 -31.401  0.00  0.00    -0.239 NA
ATOM      3  H   LEU A   1      -1.886 -41.259 -30.635  0.00  0.00    +0.142 HD
ENDBRANCH   1   2
BRANCH   1   4
ATOM      4  C   LEU A   1      -1.203 -43.174 -32.582  0.00  0.00    +0.224 C 
ATOM      5  O   LEU A   1      -0.472 -43.368 -31.666  0.00  0.00    -0.287 OA
ENDBRANCH   1   4
BRANCH   1   6
ATOM      6  CB  LEU A   1      -0.963 -40.797 -33.051  0.00  0.00    +0.025 C 
BRANCH   6   7
ATOM      7  CG  LEU A   1      -0.167 -40.810 -34.349  0.00  0.00    +0.002 C 
ATOM      8  CD2 LEU A   1       0.697 -39.572 -34.406  0.00  0.00    +0.000 C 
ATOM      9  CD1 LEU A   1      -1.000 -40.934 -35.609  0.00  0.00    +0.000 C 
ENDBRANCH   6   7
ENDBRANCH   1   6
TORSDOF 4
REMARK  Name = ../refined-set-2016/4zhm/4zhm_pocket.pdb
REMARK  221 active torsions:
REMARK  status: ('A' for Active; 'I' for Inactive)
REMARK    1  A    between atoms: _1  and  _3
REMARK    2  A    between atoms: _3  and  _4
REMARK    3  A    between atoms: _3  and  _6
REMARK    4  A    between atoms: _6  and  _7
REMARK    5  A    between atoms: _10  and  _12
REMARK    6  A    between atoms: _12  and  _13
REMARK    7  A    between atoms: _12  and  _15
REMARK    8  A    between atoms: _15  and  _16
REMARK    9  A    between atoms: _16  and  _17
REMARK   10  A    between atoms: _17  and  _18
REMARK   11  A    between atoms: _27  and  _29
REMARK   12  A    between atoms: _29  and  _30
REMARK   13  A    between atoms: _29  and  _32
REMARK   14  A    between atoms: _32  and  _33
REMARK   15  A    between atoms: _38  and  _40
REMARK   16  A    between atoms: _40  and  _41
REMARK   17  A    between atoms: _40  and  _43
REMARK   18  A    between atoms: _43  and  _44
REMARK   19  A    between atoms: _47  and  _49
REMARK   20  A    between atoms: _49  and  _50
REMARK   21  A    between atoms: _49  and  _52
REMARK   22  A    between atoms: _52  and  _53
REMARK   23  A    between atoms: _58  and  _59
REMARK   24  A    between atoms: _61  and  _63
REMARK   25  A    between atoms: _63  and  _64
REMARK   26  A    between atoms: _63  and  _66
REMARK   27  A    between atoms: _69  and  _71
REMARK   28  A    between atoms: _71  and  _72
REMARK   29  A    between atoms: _71  and  _74
REMARK   30  A    between atoms: _74  and  _75
REMARK   31  A    between atoms: _75  and  _113
REMARK   32  A    between atoms: _76  and  _78
REMARK   33  A    between atoms: _78  and  _79
REMARK   34  A    between atoms: _81  and  _83
REMARK   35  A    between atoms: _83  and  _84
REMARK   36  A    between atoms: _87  and  _89
REMARK   37  A    between atoms: _89  and  _90
REMARK   38  A    between atoms: _89  and  _92
REMARK   39  A    between atoms: _92  and  _93
REMARK   40  A    between atoms: _96  and  _98
REMARK   41  A    between atoms: _98  and  _99
REMARK   42  A    between atoms: _98  and  _101
REMARK   43  A    between atoms: _101  and  _102
REMARK   44  A    between atoms: _107  and  _109
REMARK   45  A    between atoms: _109  and  _110
REMARK   46  A    between atoms: _109  and  _112
REMARK   47  A    between atoms: _112  and  _113
REMARK   48  A    between atoms: _114  and  _116
REMARK   49  A    between atoms: _116  and  _117
REMARK   50  A    between atoms: _116  and  _119
REMARK   51  A    between atoms: _119  and  _120
REMARK   52  A    between atoms: _126  and  _128
REMARK   53  A    between atoms: _128  and  _129
REMARK   54  A    between atoms: _128  and  _131
REMARK   55  A    between atoms: _131  and  _132
REMARK   56  A    between atoms: _135  and  _137
REMARK   57  A    between atoms: _137  and  _138
REMARK   58  A    between atoms: _137  and  _140
REMARK   59  A    between atoms: _140  and  _141
REMARK   60  A    between atoms: _144  and  _146
REMARK   61  A    between atoms: _146  and  _147
REMARK   62  A    between atoms: _146  and  _149
REMARK   63  A    between atoms: _149  and  _150
REMARK   64  A    between atoms: _155  and  _156
REMARK   65  A    between atoms: _158  and  _160
REMARK   66  A    between atoms: _160  and  _161
REMARK   67  A    between atoms: _160  and  _163
REMARK   68  A    between atoms: _163  and  _164
REMARK   69  A    between atoms: _169  and  _170
REMARK   70  A    between atoms: _172  and  _174
REMARK   71  A    between atoms: _174  and  _175
REMARK   72  A    between atoms: _174  and  _177
REMARK   73  A    between atoms: _177  and  _178
REMARK   74  A    between atoms: _181  and  _183
REMARK   75  A    between atoms: _183  and  _184
REMARK   76  A    between atoms: _183  and  _186
REMARK   77  A    between atoms: _186  and  _187
REMARK   78  A    between atoms: _192  and  _193
REMARK   79  A    between atoms: _195  and  _197
REMARK   80  A    between atoms: _197  and  _198
REMARK   81  A    between atoms: _197  and  _200
REMARK   82  A    between atoms: _200  and  _201
REMARK   83  A    between atoms: _203  and  _205
REMARK   84  A    between atoms: _205  and  _206
REMARK   85  A    between atoms: _209  and  _211
REMARK   86  A    between atoms: _211  and  _212
REMARK   87  A    between atoms: _211  and  _214
REMARK   88  A    between atoms: _214  and  _215
REMARK   89  A    between atoms: _218  and  _220
REMARK   90  A    between atoms: _220  and  _221
REMARK   91  A    between atoms: _220  and  _223
REMARK   92  A    between atoms: _223  and  _224
REMARK   93  A    between atoms: _227  and  _229
REMARK   94  A    between atoms: _229  and  _230
REMARK   95  A    between atoms: _229  and  _232
REMARK   96  A    between atoms: _232  and  _233
REMARK   97  A    between atoms: _236  and  _238
REMARK   98  A    between atoms: _238  and  _239
REMARK   99  A    between atoms: _242  and  _244
REMARK  100  A    between atoms: _244  and  _245
REMARK  101  A    between atoms: _244  and  _247
REMARK  102  A    between atoms: _247  and  _248
REMARK  103  A    between atoms: _253  and  _254
REMARK  104  A    between atoms: _256  and  _258
REMARK  105  A    between atoms: _258  and  _259
REMARK  106  A    between atoms: _258  and  _261
REMARK  107  A    between atoms: _261  and  _262
REMARK  108  A    between atoms: _267  and  _269
REMARK  109  A    between atoms: _269  and  _270
REMARK  110  A    between atoms: _269  and  _272
REMARK  111  A    between atoms: _272  and  _273
REMARK  112  A    between atoms: _276  and  _278
REMARK  113  A    between atoms: _278  and  _279
REMARK  114  A    between atoms: _278  and  _281
REMARK  115  A    between atoms: _281  and  _282
REMARK  116  A    between atoms: _288  and  _290
REMARK  117  A    between atoms: _290  and  _291
REMARK  118  A    between atoms: _293  and  _295
REMARK  119  A    between atoms: _295  and  _296
REMARK  120  A    between atoms: _295  and  _298
REMARK  121  A    between atoms: _298  and  _299
REMARK  122  A    between atoms: _299  and  _300
REMARK  123  A    between atoms: _300  and  _301
REMARK  124  A    between atoms: _301  and  _302
REMARK  125  A    between atoms: _306  and  _308
REMARK  126  A    between atoms: _308  and  _309
REMARK  127  A    between atoms: _308  and  _311
REMARK  128  A    between atoms: _311  and  _312
REMARK  129  A    between atoms: _317  and  _318
REMARK  130  A    between atoms: _320  and  _322
REMARK  131  A    between atoms: _322  and  _323
REMARK  132  A    between atoms: _322  and  _325
REMARK  133  A    between atoms: _325  and  _326
REMARK  134  A    between atoms: _329  and  _331
REMARK  135  A    between atoms: _331  and  _332
REMARK  136  A    between atoms: _331  and  _334
REMARK  137  A    between atoms: _334  and  _335
REMARK  138  A    between atoms: _340  and  _341
REMARK  139  A    between atoms: _343  and  _345
REMARK  140  A    between atoms: _345  and  _346
REMARK  141  A    between atoms: _345  and  _348
REMARK  142  A    between atoms: _348  and  _349
REMARK  143  A    between atoms: _354  and  _355
REMARK  144  A    between atoms: _357  and  _359
REMARK  145  A    between atoms: _359  and  _360
REMARK  146  A    between atoms: _359  and  _362
REMARK  147  A    between atoms: _362  and  _363
REMARK  148  A    between atoms: _368  and  _369
REMARK  149  A    between atoms: _371  and  _373
REMARK  150  A    between atoms: _373  and  _374
REMARK  151  A    between atoms: _373  and  _376
REMARK  152  A    between atoms: _376  and  _377
REMARK  153  A    between atoms: _377  and  _378
REMARK  154  A    between atoms: _381  and  _383
REMARK  155  A    between atoms: _383  and  _384
REMARK  156  A    between atoms: _383  and  _386
REMARK  157  A    between atoms: _386  and  _387
REMARK  158  A    between atoms: _389  and  _391
REMARK  159  A    between atoms: _391  and  _392
REMARK  160  A    between atoms: _391  and  _394
REMARK  161  A    between atoms: _394  and  _395
REMARK  162  A    between atoms: _395  and  _505
REMARK  163  A    between atoms: _396  and  _398
REMARK  164  A    between atoms: _398  and  _399
REMARK  165  A    between atoms: _398  and  _401
REMARK  166  A    between atoms: _401  and  _402
REMARK  167  A    between atoms: _402  and  _403
REMARK  168  A    between atoms: _408  and  _410
REMARK  169  A    between atoms: _410  and  _411
REMARK  170  A    between atoms: _413  and  _415
REMARK  171  A    between atoms: _415  and  _416
REMARK  172  A    between atoms: _415  and  _418
REMARK  173  A    between atoms: _418  and  _419
REMARK  174  A    between atoms: _422  and  _424
REMARK  175  A    between atoms: _424  and  _425
REMARK  176  A    between atoms: _424  and  _427
REMARK  177  A    between atoms: _427  and  _428
REMARK  178  A    between atoms: _430  and  _432
REMARK  179  A    between atoms: _432  and  _433
REMARK  180  A    between atoms: _435  and  _437
REMARK  181  A    between atoms: _437  and  _438
REMARK  182  A    between atoms: _440  and  _442
REMARK  183  A    between atoms: _442  and  _443
REMARK  184  A    between atoms: _442  and  _445
REMARK  185  A    between atoms: _448  and  _450
REMARK  186  A    between atoms: _450  and  _451
REMARK  187  A    between atoms: _450  and  _453
REMARK  188  A    between atoms: _453  and  _454
REMARK  189  A    between atoms: _456  and  _458
REMARK  190  A    between atoms: _458  and  _459
REMARK  191  A    between atoms: _458  and  _461
REMARK  192  A    between atoms: _461  and  _462
REMARK  193  A    between atoms: _472  and  _474
REMARK  194  A    between atoms: _474  and  _475
REMARK  195  A    between atoms: _477  and  _479
REMARK  196  A    between atoms: _479  and  _480
REMARK  197  A    between atoms: _479  and  _482
REMARK  198  A    between atoms: _482  and  _483
REMARK  199  A    between atoms: _483  and  _484
REMARK  200  A    between atoms: _484  and  _485
REMARK  201  A    between atoms: _494  and  _496
REMARK  202  A    between atoms: _496  and  _497
REMARK  203  A    between atoms: _499  and  _501
REMARK  204  A    between atoms: _501  and  _502
REMARK  205  A    between atoms: _501  and  _504
REMARK  206  A    between atoms: _504  and  _505
REMARK  207  A    between atoms: _506  and  _508
REMARK  208  A    between atoms: _508  and  _509
REMARK  209  A    between atoms: _508  and  _511
REMARK  210  A    between atoms: _511  and  _512
REMARK  211  A    between atoms: _515  and  _517
REMARK  212  A    between atoms: _517  and  _518
REMARK  213  A    between atoms: _517  and  _520
REMARK  214  A    between atoms: _520  and  _521
REMARK  215  A    between atoms: _521  and  _522
REMARK  216  A    between atoms: _522  and  _523
REMARK  217  A    between atoms: _523  and  _524
REMARK  218  A    between atoms: _529  and  _530
REMARK  219  A    between atoms: _535  and  _537
REMARK  220  A    between atoms: _537  and  _538
REMARK  221  A    between atoms: _537  and  _540
REMARK                            x       y       z     vdW  Elec       q    Type
REMARK                         _______ _______ _______ _____ _____    ______ ____
ROOT
ATOM      1  CA  LYS A   1       2.898 -43.166 -29.994  0.00  0.00    +0.145 C 
ENDROOT
BRANCH   1   2
ATOM      2  C   LYS A   1       2.155 -42.970 -28.681  0.00  0.00    +0.241 C 
ATOM      3  N   PRO A   2       2.634 -43.576 -27.612  0.00  0.00    -0.273 N 
ATOM      4  CA  PRO A   2       1.954 -43.513 -26.319  0.00  0.00    +0.140 C 
ATOM      5  CB  PRO A   2       2.722 -44.531 -25.468  0.00  0.00    +0.030 C 
ATOM      6  CG  PRO A   2       3.411 -45.426 -26.432  0.00  0.00    +0.024 C 
ATOM      7  CD  PRO A   2       3.733 -44.559 -27.604  0.00  0.00    +0.094 C 
ATOM      8  O   LYS A   1       1.167 -42.322 -28.654  0.00  0.00    -0.273 OA
BRANCH   4   9
ATOM      9  C   PRO A   2       2.050 -42.153 -25.656  0.00  0.00    +0.227 C 
ATOM     10  O   PRO A   2       2.861 -41.319 -26.072  0.00  0.00    -0.286 OA
ENDBRANCH   4   9
ENDBRANCH   1   2
BRANCH   1  11
ATOM     11  N   LYS A   1       2.335 -44.291 -30.710  0.00  0.00    -0.238 NA
ATOM     12  H   LYS A   1       1.302 -44.379 -30.798  0.00  0.00    +0.142 HD
ENDBRANCH   1  11
BRANCH   1  13
ATOM     13  CB  LYS A   1       2.807 -41.935 -30.861  0.00  0.00    +0.026 C 
BRANCH  13  14
ATOM     14  CG  LYS A   1       3.451 -42.084 -32.220  0.00  0.00    -0.000 C 
BRANCH  14  15
ATOM     15  CD  LYS A   1       4.949 -42.107 -32.110  0.00  0.00    -0.024 C 
BRANCH  15  16
ATOM     16  CE  LYS A   1       5.626 -42.569 -33.381  0.00  0.00    -0.086 C 
BRANCH  16  17
ATOM     17  NZ  LYS A   1       6.994 -43.041 -33.072  0.00  0.00    +0.380 N 
ATOM     18  HZ1 LYS A   1       6.943 -43.833 -32.400  0.00  0.00    -0.089 HD
ATOM     19  HZ2 LYS A   1       7.541 -42.263 -32.652  0.00  0.00    -0.089 HD
ATOM     20  HZ3 LYS A   1       7.456 -43.358 -33.948  0.00  0.00    -0.089 HD
ENDBRANCH  16  17
ENDBRANCH  15  16
ENDBRANCH  14  15
ENDBRANCH  13  14
ENDBRANCH   1  13
TORSDOF 8
REMARK  Name = ../refined-set-2016/4zhm/4zhm_pocket.pdb
REMARK  221 active torsions:
REMARK  status: ('A' for Active; 'I' for Inactive)
REMARK    1  A    between atoms: _1  and  _3
REMARK    2  A    between atoms: _3  and  _4
REMARK    3  A    between atoms: _3  and  _6
REMARK    4  A    between atoms: _6  and  _7
REMARK    5  A    between atoms: _10  and  _12
REMARK    6  A    between atoms: _12  and  _13
REMARK    7  A    between atoms: _12  and  _15
REMARK    8  A    between atoms: _15  and  _16
REMARK    9  A    between atoms: _16  and  _17
REMARK   10  A    between atoms: _17  and  _18
REMARK   11  A    between atoms: _27  and  _29
REMARK   12  A    between atoms: _29  and  _30
REMARK   13  A    between atoms: _29  and  _32
REMARK   14  A    between atoms: _32  and  _33
REMARK   15  A    between atoms: _38  and  _40
REMARK   16  A    between atoms: _40  and  _41
REMARK   17  A    between atoms: _40  and  _43
REMARK   18  A    between atoms: _43  and  _44
REMARK   19  A    between atoms: _47  and  _49
REMARK   20  A    between atoms: _49  and  _50
REMARK   21  A    between atoms: _49  and  _52
REMARK   22  A    between atoms: _52  and  _53
REMARK   23  A    between atoms: _58  and  _59
REMARK   24  A    between atoms: _61  and  _63
REMARK   25  A    between atoms: _63  and  _64
REMARK   26  A    between atoms: _63  and  _66
REMARK   27  A    between atoms: _69  and  _71
REMARK   28  A    between atoms: _71  and  _72
REMARK   29  A    between atoms: _71  and  _74
REMARK   30  A    between atoms: _74  and  _75
REMARK   31  A    between atoms: _75  and  _113
REMARK   32  A    between atoms: _76  and  _78
REMARK   33  A    between atoms: _78  and  _79
REMARK   34  A    between atoms: _81  and  _83
REMARK   35  A    between atoms: _83  and  _84
REMARK   36  A    between atoms: _87  and  _89
REMARK   37  A    between atoms: _89  and  _90
REMARK   38  A    between atoms: _89  and  _92
REMARK   39  A    between atoms: _92  and  _93
REMARK   40  A    between atoms: _96  and  _98
REMARK   41  A    between atoms: _98  and  _99
REMARK   42  A    between atoms: _98  and  _101
REMARK   43  A    between atoms: _101  and  _102
REMARK   44  A    between atoms: _107  and  _109
REMARK   45  A    between atoms: _109  and  _110
REMARK   46  A    between atoms: _109  and  _112
REMARK   47  A    between atoms: _112  and  _113
REMARK   48  A    between atoms: _114  and  _116
REMARK   49  A    between atoms: _116  and  _117
REMARK   50  A    between atoms: _116  and  _119
REMARK   51  A    between atoms: _119  and  _120
REMARK   52  A    between atoms: _126  and  _128
REMARK   53  A    between atoms: _128  and  _129
REMARK   54  A    between atoms: _128  and  _131
REMARK   55  A    between atoms: _131  and  _132
REMARK   56  A    between atoms: _135  and  _137
REMARK   57  A    between atoms: _137  and  _138
REMARK   58  A    between atoms: _137  and  _140
REMARK   59  A    between atoms: _140  and  _141
REMARK   60  A    between atoms: _144  and  _146
REMARK   61  A    between atoms: _146  and  _147
REMARK   62  A    between atoms: _146  and  _149
REMARK   63  A    between atoms: _149  and  _150
REMARK   64  A    between atoms: _155  and  _156
REMARK   65  A    between atoms: _158  and  _160
REMARK   66  A    between atoms: _160  and  _161
REMARK   67  A    between atoms: _160  and  _163
REMARK   68  A    between atoms: _163  and  _164
REMARK   69  A    between atoms: _169  and  _170
REMARK   70  A    between atoms: _172  and  _174
REMARK   71  A    between atoms: _174  and  _175
REMARK   72  A    between atoms: _174  and  _177
REMARK   73  A    between atoms: _177  and  _178
REMARK   74  A    between atoms: _181  and  _183
REMARK   75  A    between atoms: _183  and  _184
REMARK   76  A    between atoms: _183  and  _186
REMARK   77  A    between atoms: _186  and  _187
REMARK   78  A    between atoms: _192  and  _193
REMARK   79  A    between atoms: _195  and  _197
REMARK   80  A    between atoms: _197  and  _198
REMARK   81  A    between atoms: _197  and  _200
REMARK   82  A    between atoms: _200  and  _201
REMARK   83  A    between atoms: _203  and  _205
REMARK   84  A    between atoms: _205  and  _206
REMARK   85  A    between atoms: _209  and  _211
REMARK   86  A    between atoms: _211  and  _212
REMARK   87  A    between atoms: _211  and  _214
REMARK   88  A    between atoms: _214  and  _215
REMARK   89  A    between atoms: _218  and  _220
REMARK   90  A    between atoms: _220  and  _221
REMARK   91  A    between atoms: _220  and  _223
REMARK   92  A    between atoms: _223  and  _224
REMARK   93  A    between atoms: _227  and  _229
REMARK   94  A    between atoms: _229  and  _230
REMARK   95  A    between atoms: _229  and  _232
REMARK   96  A    between atoms: _232  and  _233
REMARK   97  A    between atoms: _236  and  _238
REMARK   98  A    between atoms: _238  and  _239
REMARK   99  A    between atoms: _242  and  _244
REMARK  100  A    between atoms: _244  and  _245
REMARK  101  A    between atoms: _244  and  _247
REMARK  102  A    between atoms: _247  and  _248
REMARK  103  A    between atoms: _253  and  _254
REMARK  104  A    between atoms: _256  and  _258
REMARK  105  A    between atoms: _258  and  _259
REMARK  106  A    between atoms: _258  and  _261
REMARK  107  A    between atoms: _261  and  _262
REMARK  108  A    between atoms: _267  and  _269
REMARK  109  A    between atoms: _269  and  _270
REMARK  110  A    between atoms: _269  and  _272
REMARK  111  A    between atoms: _272  and  _273
REMARK  112  A    between atoms: _276  and  _278
REMARK  113  A    between atoms: _278  and  _279
REMARK  114  A    between atoms: _278  and  _281
REMARK  115  A    between atoms: _281  and  _282
REMARK  116  A    between atoms: _288  and  _290
REMARK  117  A    between atoms: _290  and  _291
REMARK  118  A    between atoms: _293  and  _295
REMARK  119  A    between atoms: _295  and  _296
REMARK  120  A    between atoms: _295  and  _298
REMARK  121  A    between atoms: _298  and  _299
REMARK  122  A    between atoms: _299  and  _300
REMARK  123  A    between atoms: _300  and  _301
REMARK  124  A    between atoms: _301  and  _302
REMARK  125  A    between atoms: _306  and  _308
REMARK  126  A    between atoms: _308  and  _309
REMARK  127  A    between atoms: _308  and  _311
REMARK  128  A    between atoms: _311  and  _312
REMARK  129  A    between atoms: _317  and  _318
REMARK  130  A    between atoms: _320  and  _322
REMARK  131  A    between atoms: _322  and  _323
REMARK  132  A    between atoms: _322  and  _325
REMARK  133  A    between atoms: _325  and  _326
REMARK  134  A    between atoms: _329  and  _331
REMARK  135  A    between atoms: _331  and  _332
REMARK  136  A    between atoms: _331  and  _334
REMARK  137  A    between atoms: _334  and  _335
REMARK  138  A    between atoms: _340  and  _341
REMARK  139  A    between atoms: _343  and  _345
REMARK  140  A    between atoms: _345  and  _346
REMARK  141  A    between atoms: _345  and  _348
REMARK  142  A    between atoms: _348  and  _349
REMARK  143  A    between atoms: _354  and  _355
REMARK  144  A    between atoms: _357  and  _359
REMARK  145  A    between atoms: _359  and  _360
REMARK  146  A    between atoms: _359  and  _362
REMARK  147  A    between atoms: _362  and  _363
REMARK  148  A    between atoms: _368  and  _369
REMARK  149  A    between atoms: _371  and  _373
REMARK  150  A    between atoms: _373  and  _374
REMARK  151  A    between atoms: _373  and  _376
REMARK  152  A    between atoms: _376  and  _377
REMARK  153  A    between atoms: _377  and  _378
REMARK  154  A    between atoms: _381  and  _383
REMARK  155  A    between atoms: _383  and  _384
REMARK  156  A    between atoms: _383  and  _386
REMARK  157  A    between atoms: _386  and  _387
REMARK  158  A    between atoms: _389  and  _391
REMARK  159  A    between atoms: _391  and  _392
REMARK  160  A    between atoms: _391  and  _394
REMARK  161  A    between atoms: _394  and  _395
REMARK  162  A    between atoms: _395  and  _505
REMARK  163  A    between atoms: _396  and  _398
REMARK  164  A    between atoms: _398  and  _399
REMARK  165  A    between atoms: _398  and  _401
REMARK  166  A    between atoms: _401  and  _402
REMARK  167  A    between atoms: _402  and  _403
REMARK  168  A    between atoms: _408  and  _410
REMARK  169  A    between atoms: _410  and  _411
REMARK  170  A    between atoms: _413  and  _415
REMARK  171  A    between atoms: _415  and  _416
REMARK  172  A    between atoms: _415  and  _418
REMARK  173  A    between atoms: _418  and  _419
REMARK  174  A    between atoms: _422  and  _424
REMARK  175  A    between atoms: _424  and  _425
REMARK  176  A    between atoms: _424  and  _427
REMARK  177  A    between atoms: _427  and  _428
REMARK  178  A    between atoms: _430  and  _432
REMARK  179  A    between atoms: _432  and  _433
REMARK  180  A    between atoms: _435  and  _437
REMARK  181  A    between atoms: _437  and  _438
REMARK  182  A    between atoms: _440  and  _442
REMARK  183  A    between atoms: _442  and  _443
REMARK  184  A    between atoms: _442  and  _445
REMARK  185  A    between atoms: _448  and  _450
REMARK  186  A    between atoms: _450  and  _451
REMARK  187  A    between atoms: _450  and  _453
REMARK  188  A    between atoms: _453  and  _454
REMARK  189  A    between atoms: _456  and  _458
REMARK  190  A    between atoms: _458  and  _459
REMARK  191  A    between atoms: _458  and  _461
REMARK  192  A    between atoms: _461  and  _462
REMARK  193  A    between atoms: _472  and  _474
REMARK  194  A    between atoms: _474  and  _475
REMARK  195  A    between atoms: _477  and  _479
REMARK  196  A    between atoms: _479  and  _480
REMARK  197  A    between atoms: _479  and  _482
REMARK  198  A    between atoms: _482  and  _483
REMARK  199  A    between atoms: _483  and  _484
REMARK  200  A    between atoms: _484  and  _485
REMARK  201  A    between atoms: _494  and  _496
REMARK  202  A    between atoms: _496  and  _497
REMARK  203  A    between atoms: _499  and  _501
REMARK  204  A    between atoms: _501  and  _502
REMARK  205  A    between atoms: _501  and  _504
REMARK  206  A    between atoms: _504  and  _505
REMARK  207  A    between atoms: _506  and  _508
REMARK  208  A    between atoms: _508  and  _509
REMARK  209  A    between atoms: _508  and  _511
REMARK  210  A    between atoms: _511  and  _512
REMARK  211  A    between atoms: _515  and  _517
REMARK  212  A    between atoms: _517  and  _518
REMARK  213  A    between atoms: _517  and  _520
REMARK  214  A    between atoms: _520  and  _521
REMARK  215  A    between atoms: _521  and  _522
REMARK  216  A    between atoms: _522  and  _523
REMARK  217  A    between atoms: _523  and  _524
REMARK  218  A    between atoms: _529  and  _530
REMARK  219  A    between atoms: _535  and  _537
REMARK  220  A    between atoms: _537  and  _538
REMARK  221  A    between atoms: _537  and  _540
REMARK                            x       y       z     vdW  Elec       q    Type
REMARK                         _______ _______ _______ _____ _____    ______ ____
ROOT
ATOM      1  CA  VAL A   1       4.625 -40.176 -21.740  0.00  0.00    +0.133 C 
ENDROOT
BRANCH   1   2
ATOM      2  CB  VAL A   1       5.924 -39.755 -22.448  0.00  0.00    +0.023 C 
ATOM      3  CG2 VAL A   1       7.113 -40.154 -21.596  0.00  0.00    +0.002 C 
ATOM      4  CG1 VAL A   1       5.990 -40.384 -23.840  0.00  0.00    +0.002 C 
ENDBRANCH   1   2
BRANCH   1   5
ATOM      5  N   VAL A   1       3.465 -40.043 -22.595  0.00  0.00    -0.239 NA
ATOM      6  H   VAL A   1       3.243 -39.112 -23.003  0.00  0.00    +0.142 HD
ENDBRANCH   1   5
BRANCH   1   7
ATOM      7  C   VAL A   1       4.440 -39.314 -20.503  0.00  0.00    +0.224 C 
ATOM      8  O   VAL A   1       4.014 -38.155 -20.590  0.00  0.00    -0.287 OA
ENDBRANCH   1   7
TORSDOF 3
REMARK  Name = ../refined-set-2016/4zhm/4zhm_pocket.pdb
REMARK  221 active torsions:
REMARK  status: ('A' for Active; 'I' for Inactive)
REMARK    1  A    between atoms: _1  and  _3
REMARK    2  A    between atoms: _3  and  _4
REMARK    3  A    between atoms: _3  and  _6
REMARK    4  A    between atoms: _6  and  _7
REMARK    5  A    between atoms: _10  and  _12
REMARK    6  A    between atoms: _12  and  _13
REMARK    7  A    between atoms: _12  and  _15
REMARK    8  A    between atoms: _15  and  _16
REMARK    9  A    between atoms: _16  and  _17
REMARK   10  A    between atoms: _17  and  _18
REMARK   11  A    between atoms: _27  and  _29
REMARK   12  A    between atoms: _29  and  _30
REMARK   13  A    between atoms: _29  and  _32
REMARK   14  A    between atoms: _32  and  _33
REMARK   15  A    between atoms: _38  and  _40
REMARK   16  A    between atoms: _40  and  _41
REMARK   17  A    between atoms: _40  and  _43
REMARK   18  A    between atoms: _43  and  _44
REMARK   19  A    between atoms: _47  and  _49
REMARK   20  A    between atoms: _49  and  _50
REMARK   21  A    between atoms: _49  and  _52
REMARK   22  A    between atoms: _52  and  _53
REMARK   23  A    between atoms: _58  and  _59
REMARK   24  A    between atoms: _61  and  _63
REMARK   25  A    between atoms: _63  and  _64
REMARK   26  A    between atoms: _63  and  _66
REMARK   27  A    between atoms: _69  and  _71
REMARK   28  A    between atoms: _71  and  _72
REMARK   29  A    between atoms: _71  and  _74
REMARK   30  A    between atoms: _74  and  _75
REMARK   31  A    between atoms: _75  and  _113
REMARK   32  A    between atoms: _76  and  _78
REMARK   33  A    between atoms: _78  and  _79
REMARK   34  A    between atoms: _81  and  _83
REMARK   35  A    between atoms: _83  and  _84
REMARK   36  A    between atoms: _87  and  _89
REMARK   37  A    between atoms: _89  and  _90
REMARK   38  A    between atoms: _89  and  _92
REMARK   39  A    between atoms: _92  and  _93
REMARK   40  A    between atoms: _96  and  _98
REMARK   41  A    between atoms: _98  and  _99
REMARK   42  A    between atoms: _98  and  _101
REMARK   43  A    between atoms: _101  and  _102
REMARK   44  A    between atoms: _107  and  _109
REMARK   45  A    between atoms: _109  and  _110
REMARK   46  A    between atoms: _109  and  _112
REMARK   47  A    between atoms: _112  and  _113
REMARK   48  A    between atoms: _114  and  _116
REMARK   49  A    between atoms: _116  and  _117
REMARK   50  A    between atoms: _116  and  _119
REMARK   51  A    between atoms: _119  and  _120
REMARK   52  A    between atoms: _126  and  _128
REMARK   53  A    between atoms: _128  and  _129
REMARK   54  A    between atoms: _128  and  _131
REMARK   55  A    between atoms: _131  and  _132
REMARK   56  A    between atoms: _135  and  _137
REMARK   57  A    between atoms: _137  and  _138
REMARK   58  A    between atoms: _137  and  _140
REMARK   59  A    between atoms: _140  and  _141
REMARK   60  A    between atoms: _144  and  _146
REMARK   61  A    between atoms: _146  and  _147
REMARK   62  A    between atoms: _146  and  _149
REMARK   63  A    between atoms: _149  and  _150
REMARK   64  A    between atoms: _155  and  _156
REMARK   65  A    between atoms: _158  and  _160
REMARK   66  A    between atoms: _160  and  _161
REMARK   67  A    between atoms: _160  and  _163
REMARK   68  A    between atoms: _163  and  _164
REMARK   69  A    between atoms: _169  and  _170
REMARK   70  A    between atoms: _172  and  _174
REMARK   71  A    between atoms: _174  and  _175
REMARK   72  A    between atoms: _174  and  _177
REMARK   73  A    between atoms: _177  and  _178
REMARK   74  A    between atoms: _181  and  _183
REMARK   75  A    between atoms: _183  and  _184
REMARK   76  A    between atoms: _183  and  _186
REMARK   77  A    between atoms: _186  and  _187
REMARK   78  A    between atoms: _192  and  _193
REMARK   79  A    between atoms: _195  and  _197
REMARK   80  A    between atoms: _197  and  _198
REMARK   81  A    between atoms: _197  and  _200
REMARK   82  A    between atoms: _200  and  _201
REMARK   83  A    between atoms: _203  and  _205
REMARK   84  A    between atoms: _205  and  _206
REMARK   85  A    between atoms: _209  and  _211
REMARK   86  A    between atoms: _211  and  _212
REMARK   87  A    between atoms: _211  and  _214
REMARK   88  A    between atoms: _214  and  _215
REMARK   89  A    between atoms: _218  and  _220
REMARK   90  A    between atoms: _220  and  _221
REMARK   91  A    between atoms: _220  and  _223
REMARK   92  A    between atoms: _223  and  _224
REMARK   93  A    between atoms: _227  and  _229
REMARK   94  A    between atoms: _229  and  _230
REMARK   95  A    between atoms: _229  and  _232
REMARK   96  A    between atoms: _232  and  _233
REMARK   97  A    between atoms: _236  and  _238
REMARK   98  A    between atoms: _238  and  _239
REMARK   99  A    between atoms: _242  and  _244
REMARK  100  A    between atoms: _244  and  _245
REMARK  101  A    between atoms: _244  and  _247
REMARK  102  A    between atoms: _247  and  _248
REMARK  103  A    between atoms: _253  and  _254
REMARK  104  A    between atoms: _256  and  _258
REMARK  105  A    between atoms: _258  and  _259
REMARK  106  A    between atoms: _258  and  _261
REMARK  107  A    between atoms: _261  and  _262
REMARK  108  A    between atoms: _267  and  _269
REMARK  109  A    between atoms: _269  and  _270
REMARK  110  A    between atoms: _269  and  _272
REMARK  111  A    between atoms: _272  and  _273
REMARK  112  A    between atoms: _276  and  _278
REMARK  113  A    between atoms: _278  and  _279
REMARK  114  A    between atoms: _278  and  _281
REMARK  115  A    between atoms: _281  and  _282
REMARK  116  A    between atoms: _288  and  _290
REMARK  117  A    between atoms: _290  and  _291
REMARK  118  A    between atoms: _293  and  _295
REMARK  119  A    between atoms: _295  and  _296
REMARK  120  A    between atoms: _295  and  _298
REMARK  121  A    between atoms: _298  and  _299
REMARK  122  A    between atoms: _299  and  _300
REMARK  123  A    between atoms: _300  and  _301
REMARK  124  A    between atoms: _301  and  _302
REMARK  125  A    between atoms: _306  and  _308
REMARK  126  A    between atoms: _308  and  _309
REMARK  127  A    between atoms: _308  and  _311
REMARK  128  A    between atoms: _311  and  _312
REMARK  129  A    between atoms: _317  and  _318
REMARK  130  A    between atoms: _320  and  _322
REMARK  131  A    between atoms: _322  and  _323
REMARK  132  A    between atoms: _322  and  _325
REMARK  133  A    between atoms: _325  and  _326
REMARK  134  A    between atoms: _329  and  _331
REMARK  135  A    between atoms: _331  and  _332
REMARK  136  A    between atoms: _331  and  _334
REMARK  137  A    between atoms: _334  and  _335
REMARK  138  A    between atoms: _340  and  _341
REMARK  139  A    between atoms: _343  and  _345
REMARK  140  A    between atoms: _345  and  _346
REMARK  141  A    between atoms: _345  and  _348
REMARK  142  A    between atoms: _348  and  _349
REMARK  143  A    between atoms: _354  and  _355
REMARK  144  A    between atoms: _357  and  _359
REMARK  145  A    between atoms: _359  and  _360
REMARK  146  A    between atoms: _359  and  _362
REMARK  147  A    between atoms: _362  and  _363
REMARK  148  A    between atoms: _368  and  _369
REMARK  149  A    between atoms: _371  and  _373
REMARK  150  A    between atoms: _373  and  _374
REMARK  151  A    between atoms: _373  and  _376
REMARK  152  A    between atoms: _376  and  _377
REMARK  153  A    between atoms: _377  and  _378
REMARK  154  A    between atoms: _381  and  _383
REMARK  155  A    between atoms: _383  and  _384
REMARK  156  A    between atoms: _383  and  _386
REMARK  157  A    between atoms: _386  and  _387
REMARK  158  A    between atoms: _389  and  _391
REMARK  159  A    between atoms: _391  and  _392
REMARK  160  A    between atoms: _391  and  _394
REMARK  161  A    between atoms: _394  and  _395
REMARK  162  A    between atoms: _395  and  _505
REMARK  163  A    between atoms: _396  and  _398
REMARK  164  A    between atoms: _398  and  _399
REMARK  165  A    between atoms: _398  and  _401
REMARK  166  A    between atoms: _401  and  _402
REMARK  167  A    between atoms: _402  and  _403
REMARK  168  A    between atoms: _408  and  _410
REMARK  169  A    between atoms: _410  and  _411
REMARK  170  A    between atoms: _413  and  _415
REMARK  171  A    between atoms: _415  and  _416
REMARK  172  A    between atoms: _415  and  _418
REMARK  173  A    between atoms: _418  and  _419
REMARK  174  A    between atoms: _422  and  _424
REMARK  175  A    between atoms: _424  and  _425
REMARK  176  A    between atoms: _424  and  _427
REMARK  177  A    between atoms: _427  and  _428
REMARK  178  A    between atoms: _430  and  _432
REMARK  179  A    between atoms: _432  and  _433
REMARK  180  A    between atoms: _435  and  _437
REMARK  181  A    between atoms: _437  and  _438
REMARK  182  A    between atoms: _440  and  _442
REMARK  183  A    between atoms: _442  and  _443
REMARK  184  A    between atoms: _442  and  _445
REMARK  185  A    between atoms: _448  and  _450
REMARK  186  A    between atoms: _450  and  _451
REMARK  187  A    between atoms: _450  and  _453
REMARK  188  A    between atoms: _453  and  _454
REMARK  189  A    between atoms: _456  and  _458
REMARK  190  A    between atoms: _458  and  _459
REMARK  191  A    between atoms: _458  and  _461
REMARK  192  A    between atoms: _461  and  _462
REMARK  193  A    between atoms: _472  and  _474
REMARK  194  A    between atoms: _474  and  _475
REMARK  195  A    between atoms: _477  and  _479
REMARK  196  A    between atoms: _479  and  _480
REMARK  197  A    between atoms: _479  and  _482
REMARK  198  A    between atoms: _482  and  _483
REMARK  199  A    between atoms: _483  and  _484
REMARK  200  A    between atoms: _484  and  _485
REMARK  201  A    between atoms: _494  and  _496
REMARK  202  A    between atoms: _496  and  _497
REMARK  203  A    between atoms: _499  and  _501
REMARK  204  A    between atoms: _501  and  _502
REMARK  205  A    between atoms: _501  and  _504
REMARK  206  A    between atoms: _504  and  _505
REMARK  207  A    between atoms: _506  and  _508
REMARK  208  A    between atoms: _508  and  _509
REMARK  209  A    between atoms: _508  and  _511
REMARK  210  A    between atoms: _511  and  _512
REMARK  211  A    between atoms: _515  and  _517
REMARK  212  A    between atoms: _517  and  _518
REMARK  213  A    between atoms: _517  and  _520
REMARK  214  A    between atoms: _520  and  _521
REMARK  215  A    between atoms: _521  and  _522
REMARK  216  A    between atoms: _522  and  _523
REMARK  217  A    between atoms: _523  and  _524
REMARK  218  A    between atoms: _529  and  _530
REMARK  219  A    between atoms: _535  and  _537
REMARK  220  A    between atoms: _537  and  _538
REMARK  221  A    between atoms: _537  and  _540
REMARK                            x       y       z     vdW  Elec       q    Type
REMARK                         _______ _______ _______ _____ _____    ______ ____
ROOT
ATOM      1  O   HOH     1      10.444 -25.517 -24.634  0.00  0.00    +0.000 OA
ENDROOT
TORSDOF 0
REMARK  Name = ../refined-set-2016/4zhm/4zhm_pocket.pdb
REMARK  221 active torsions:
REMARK  status: ('A' for Active; 'I' for Inactive)
REMARK    1  A    between atoms: _1  and  _3
REMARK    2  A    between atoms: _3  and  _4
REMARK    3  A    between atoms: _3  and  _6
REMARK    4  A    between atoms: _6  and  _7
REMARK    5  A    between atoms: _10  and  _12
REMARK    6  A    between atoms: _12  and  _13
REMARK    7  A    between atoms: _12  and  _15
REMARK    8  A    between atoms: _15  and  _16
REMARK    9  A    between atoms: _16  and  _17
REMARK   10  A    between atoms: _17  and  _18
REMARK   11  A    between atoms: _27  and  _29
REMARK   12  A    between atoms: _29  and  _30
REMARK   13  A    between atoms: _29  and  _32
REMARK   14  A    between atoms: _32  and  _33
REMARK   15  A    between atoms: _38  and  _40
REMARK   16  A    between atoms: _40  and  _41
REMARK   17  A    between atoms: _40  and  _43
REMARK   18  A    between atoms: _43  and  _44
REMARK   19  A    between atoms: _47  and  _49
REMARK   20  A    between atoms: _49  and  _50
REMARK   21  A    between atoms: _49  and  _52
REMARK   22  A    between atoms: _52  and  _53
REMARK   23  A    between atoms: _58  and  _59
REMARK   24  A    between atoms: _61  and  _63
REMARK   25  A    between atoms: _63  and  _64
REMARK   26  A    between atoms: _63  and  _66
REMARK   27  A    between atoms: _69  and  _71
REMARK   28  A    between atoms: _71  and  _72
REMARK   29  A    between atoms: _71  and  _74
REMARK   30  A    between atoms: _74  and  _75
REMARK   31  A    between atoms: _75  and  _113
REMARK   32  A    between atoms: _76  and  _78
REMARK   33  A    between atoms: _78  and  _79
REMARK   34  A    between atoms: _81  and  _83
REMARK   35  A    between atoms: _83  and  _84
REMARK   36  A    between atoms: _87  and  _89
REMARK   37  A    between atoms: _89  and  _90
REMARK   38  A    between atoms: _89  and  _92
REMARK   39  A    between atoms: _92  and  _93
REMARK   40  A    between atoms: _96  and  _98
REMARK   41  A    between atoms: _98  and  _99
REMARK   42  A    between atoms: _98  and  _101
REMARK   43  A    between atoms: _101  and  _102
REMARK   44  A    between atoms: _107  and  _109
REMARK   45  A    between atoms: _109  and  _110
REMARK   46  A    between atoms: _109  and  _112
REMARK   47  A    between atoms: _112  and  _113
REMARK   48  A    between atoms: _114  and  _116
REMARK   49  A    between atoms: _116  and  _117
REMARK   50  A    between atoms: _116  and  _119
REMARK   51  A    between atoms: _119  and  _120
REMARK   52  A    between atoms: _126  and  _128
REMARK   53  A    between atoms: _128  and  _129
REMARK   54  A    between atoms: _128  and  _131
REMARK   55  A    between atoms: _131  and  _132
REMARK   56  A    between atoms: _135  and  _137
REMARK   57  A    between atoms: _137  and  _138
REMARK   58  A    between atoms: _137  and  _140
REMARK   59  A    between atoms: _140  and  _141
REMARK   60  A    between atoms: _144  and  _146
REMARK   61  A    between atoms: _146  and  _147
REMARK   62  A    between atoms: _146  and  _149
REMARK   63  A    between atoms: _149  and  _150
REMARK   64  A    between atoms: _155  and  _156
REMARK   65  A    between atoms: _158  and  _160
REMARK   66  A    between atoms: _160  and  _161
REMARK   67  A    between atoms: _160  and  _163
REMARK   68  A    between atoms: _163  and  _164
REMARK   69  A    between atoms: _169  and  _170
REMARK   70  A    between atoms: _172  and  _174
REMARK   71  A    between atoms: _174  and  _175
REMARK   72  A    between atoms: _174  and  _177
REMARK   73  A    between atoms: _177  and  _178
REMARK   74  A    between atoms: _181  and  _183
REMARK   75  A    between atoms: _183  and  _184
REMARK   76  A    between atoms: _183  and  _186
REMARK   77  A    between atoms: _186  and  _187
REMARK   78  A    between atoms: _192  and  _193
REMARK   79  A    between atoms: _195  and  _197
REMARK   80  A    between atoms: _197  and  _198
REMARK   81  A    between atoms: _197  and  _200
REMARK   82  A    between atoms: _200  and  _201
REMARK   83  A    between atoms: _203  and  _205
REMARK   84  A    between atoms: _205  and  _206
REMARK   85  A    between atoms: _209  and  _211
REMARK   86  A    between atoms: _211  and  _212
REMARK   87  A    between atoms: _211  and  _214
REMARK   88  A    between atoms: _214  and  _215
REMARK   89  A    between atoms: _218  and  _220
REMARK   90  A    between atoms: _220  and  _221
REMARK   91  A    between atoms: _220  and  _223
REMARK   92  A    between atoms: _223  and  _224
REMARK   93  A    between atoms: _227  and  _229
REMARK   94  A    between atoms: _229  and  _230
REMARK   95  A    between atoms: _229  and  _232
REMARK   96  A    between atoms: _232  and  _233
REMARK   97  A    between atoms: _236  and  _238
REMARK   98  A    between atoms: _238  and  _239
REMARK   99  A    between atoms: _242  and  _244
REMARK  100  A    between atoms: _244  and  _245
REMARK  101  A    between atoms: _244  and  _247
REMARK  102  A    between atoms: _247  and  _248
REMARK  103  A    between atoms: _253  and  _254
REMARK  104  A    between atoms: _256  and  _258
REMARK  105  A    between atoms: _258  and  _259
REMARK  106  A    between atoms: _258  and  _261
REMARK  107  A    between atoms: _261  and  _262
REMARK  108  A    between atoms: _267  and  _269
REMARK  109  A    between atoms: _269  and  _270
REMARK  110  A    between atoms: _269  and  _272
REMARK  111  A    between atoms: _272  and  _273
REMARK  112  A    between atoms: _276  and  _278
REMARK  113  A    between atoms: _278  and  _279
REMARK  114  A    between atoms: _278  and  _281
REMARK  115  A    between atoms: _281  and  _282
REMARK  116  A    between atoms: _288  and  _290
REMARK  117  A    between atoms: _290  and  _291
REMARK  118  A    between atoms: _293  and  _295
REMARK  119  A    between atoms: _295  and  _296
REMARK  120  A    between atoms: _295  and  _298
REMARK  121  A    between atoms: _298  and  _299
REMARK  122  A    between atoms: _299  and  _300
REMARK  123  A    between atoms: _300  and  _301
REMARK  124  A    between atoms: _301  and  _302
REMARK  125  A    between atoms: _306  and  _308
REMARK  126  A    between atoms: _308  and  _309
REMARK  127  A    between atoms: _308  and  _311
REMARK  128  A    between atoms: _311  and  _312
REMARK  129  A    between atoms: _317  and  _318
REMARK  130  A    between atoms: _320  and  _322
REMARK  131  A    between atoms: _322  and  _323
REMARK  132  A    between atoms: _322  and  _325
REMARK  133  A    between atoms: _325  and  _326
REMARK  134  A    between atoms: _329  and  _331
REMARK  135  A    between atoms: _331  and  _332
REMARK  136  A    between atoms: _331  and  _334
REMARK  137  A    between atoms: _334  and  _335
REMARK  138  A    between atoms: _340  and  _341
REMARK  139  A    between atoms: _343  and  _345
REMARK  140  A    between atoms: _345  and  _346
REMARK  141  A    between atoms: _345  and  _348
REMARK  142  A    between atoms: _348  and  _349
REMARK  143  A    between atoms: _354  and  _355
REMARK  144  A    between atoms: _357  and  _359
REMARK  145  A    between atoms: _359  and  _360
REMARK  146  A    between atoms: _359  and  _362
REMARK  147  A    between atoms: _362  and  _363
REMARK  148  A    between atoms: _368  and  _369
REMARK  149  A    between atoms: _371  and  _373
REMARK  150  A    between atoms: _373  and  _374
REMARK  151  A    between atoms: _373  and  _376
REMARK  152  A    between atoms: _376  and  _377
REMARK  153  A    between atoms: _377  and  _378
REMARK  154  A    between atoms: _381  and  _383
REMARK  155  A    between atoms: _383  and  _384
REMARK  156  A    between atoms: _383  and  _386
REMARK  157  A    between atoms: _386  and  _387
REMARK  158  A    between atoms: _389  and  _391
REMARK  159  A    between atoms: _391  and  _392
REMARK  160  A    between atoms: _391  and  _394
REMARK  161  A    between atoms: _394  and  _395
REMARK  162  A    between atoms: _395  and  _505
REMARK  163  A    between atoms: _396  and  _398
REMARK  164  A    between atoms: _398  and  _399
REMARK  165  A    between atoms: _398  and  _401
REMARK  166  A    between atoms: _401  and  _402
REMARK  167  A    between atoms: _402  and  _403
REMARK  168  A    between atoms: _408  and  _410
REMARK  169  A    between atoms: _410  and  _411
REMARK  170  A    between atoms: _413  and  _415
REMARK  171  A    between atoms: _415  and  _416
REMARK  172  A    between atoms: _415  and  _418
REMARK  173  A    between atoms: _418  and  _419
REMARK  174  A    between atoms: _422  and  _424
REMARK  175  A    between atoms: _424  and  _425
REMARK  176  A    between atoms: _424  and  _427
REMARK  177  A    between atoms: _427  and  _428
REMARK  178  A    between atoms: _430  and  _432
REMARK  179  A    between atoms: _432  and  _433
REMARK  180  A    between atoms: _435  and  _437
REMARK  181  A    between atoms: _437  and  _438
REMARK  182  A    between atoms: _440  and  _442
REMARK  183  A    between atoms: _442  and  _443
REMARK  184  A    between atoms: _442  and  _445
REMARK  185  A    between atoms: _448  and  _450
REMARK  186  A    between atoms: _450  and  _451
REMARK  187  A    between atoms: _450  and  _453
REMARK  188  A    between atoms: _453  and  _454
REMARK  189  A    between atoms: _456  and  _458
REMARK  190  A    between atoms: _458  and  _459
REMARK  191  A    between atoms: _458  and  _461
REMARK  192  A    between atoms: _461  and  _462
REMARK  193  A    between atoms: _472  and  _474
REMARK  194  A    between atoms: _474  and  _475
REMARK  195  A    between atoms: _477  and  _479
REMARK  196  A    between atoms: _479  and  _480
REMARK  197  A    between atoms: _479  and  _482
REMARK  198  A    between atoms: _482  and  _483
REMARK  199  A    between atoms: _483  and  _484
REMARK  200  A    between atoms: _484  and  _485
REMARK  201  A    between atoms: _494  and  _496
REMARK  202  A    between atoms: _496  and  _497
REMARK  203  A    between atoms: _499  and  _501
REMARK  204  A    between atoms: _501  and  _502
REMARK  205  A    between atoms: _501  and  _504
REMARK  206  A    between atoms: _504  and  _505
REMARK  207  A    between atoms: _506  and  _508
REMARK  208  A    between atoms: _508  and  _509
REMARK  209  A    between atoms: _508  and  _511
REMARK  210  A    between atoms: _511  and  _512
REMARK  211  A    between atoms: _515  and  _517
REMARK  212  A    between atoms: _517  and  _518
REMARK  213  A    between atoms: _517  and  _520
REMARK  214  A    between atoms: _520  and  _521
REMARK  215  A    between atoms: _521  and  _522
REMARK  216  A    between atoms: _522  and  _523
REMARK  217  A    between atoms: _523  and  _524
REMARK  218  A    between atoms: _529  and  _530
REMARK  219  A    between atoms: _535  and  _537
REMARK  220  A    between atoms: _537  and  _538
REMARK  221  A    between atoms: _537  and  _540
REMARK                            x       y       z     vdW  Elec       q    Type
REMARK                         _______ _______ _______ _____ _____    ______ ____
ROOT
ATOM      1  O   HOH     1      -3.732 -23.952 -27.241  0.00  0.00    +0.000 OA
ENDROOT
TORSDOF 0
REMARK  Name = ../refined-set-2016/4zhm/4zhm_pocket.pdb
REMARK  221 active torsions:
REMARK  status: ('A' for Active; 'I' for Inactive)
REMARK    1  A    between atoms: _1  and  _3
REMARK    2  A    between atoms: _3  and  _4
REMARK    3  A    between atoms: _3  and  _6
REMARK    4  A    between atoms: _6  and  _7
REMARK    5  A    between atoms: _10  and  _12
REMARK    6  A    between atoms: _12  and  _13
REMARK    7  A    between atoms: _12  and  _15
REMARK    8  A    between atoms: _15  and  _16
REMARK    9  A    between atoms: _16  and  _17
REMARK   10  A    between atoms: _17  and  _18
REMARK   11  A    between atoms: _27  and  _29
REMARK   12  A    between atoms: _29  and  _30
REMARK   13  A    between atoms: _29  and  _32
REMARK   14  A    between atoms: _32  and  _33
REMARK   15  A    between atoms: _38  and  _40
REMARK   16  A    between atoms: _40  and  _41
REMARK   17  A    between atoms: _40  and  _43
REMARK   18  A    between atoms: _43  and  _44
REMARK   19  A    between atoms: _47  and  _49
REMARK   20  A    between atoms: _49  and  _50
REMARK   21  A    between atoms: _49  and  _52
REMARK   22  A    between atoms: _52  and  _53
REMARK   23  A    between atoms: _58  and  _59
REMARK   24  A    between atoms: _61  and  _63
REMARK   25  A    between atoms: _63  and  _64
REMARK   26  A    between atoms: _63  and  _66
REMARK   27  A    between atoms: _69  and  _71
REMARK   28  A    between atoms: _71  and  _72
REMARK   29  A    between atoms: _71  and  _74
REMARK   30  A    between atoms: _74  and  _75
REMARK   31  A    between atoms: _75  and  _113
REMARK   32  A    between atoms: _76  and  _78
REMARK   33  A    between atoms: _78  and  _79
REMARK   34  A    between atoms: _81  and  _83
REMARK   35  A    between atoms: _83  and  _84
REMARK   36  A    between atoms: _87  and  _89
REMARK   37  A    between atoms: _89  and  _90
REMARK   38  A    between atoms: _89  and  _92
REMARK   39  A    between atoms: _92  and  _93
REMARK   40  A    between atoms: _96  and  _98
REMARK   41  A    between atoms: _98  and  _99
REMARK   42  A    between atoms: _98  and  _101
REMARK   43  A    between atoms: _101  and  _102
REMARK   44  A    between atoms: _107  and  _109
REMARK   45  A    between atoms: _109  and  _110
REMARK   46  A    between atoms: _109  and  _112
REMARK   47  A    between atoms: _112  and  _113
REMARK   48  A    between atoms: _114  and  _116
REMARK   49  A    between atoms: _116  and  _117
REMARK   50  A    between atoms: _116  and  _119
REMARK   51  A    between atoms: _119  and  _120
REMARK   52  A    between atoms: _126  and  _128
REMARK   53  A    between atoms: _128  and  _129
REMARK   54  A    between atoms: _128  and  _131
REMARK   55  A    between atoms: _131  and  _132
REMARK   56  A    between atoms: _135  and  _137
REMARK   57  A    between atoms: _137  and  _138
REMARK   58  A    between atoms: _137  and  _140
REMARK   59  A    between atoms: _140  and  _141
REMARK   60  A    between atoms: _144  and  _146
REMARK   61  A    between atoms: _146  and  _147
REMARK   62  A    between atoms: _146  and  _149
REMARK   63  A    between atoms: _149  and  _150
REMARK   64  A    between atoms: _155  and  _156
REMARK   65  A    between atoms: _158  and  _160
REMARK   66  A    between atoms: _160  and  _161
REMARK   67  A    between atoms: _160  and  _163
REMARK   68  A    between atoms: _163  and  _164
REMARK   69  A    between atoms: _169  and  _170
REMARK   70  A    between atoms: _172  and  _174
REMARK   71  A    between atoms: _174  and  _175
REMARK   72  A    between atoms: _174  and  _177
REMARK   73  A    between atoms: _177  and  _178
REMARK   74  A    between atoms: _181  and  _183
REMARK   75  A    between atoms: _183  and  _184
REMARK   76  A    between atoms: _183  and  _186
REMARK   77  A    between atoms: _186  and  _187
REMARK   78  A    between atoms: _192  and  _193
REMARK   79  A    between atoms: _195  and  _197
REMARK   80  A    between atoms: _197  and  _198
REMARK   81  A    between atoms: _197  and  _200
REMARK   82  A    between atoms: _200  and  _201
REMARK   83  A    between atoms: _203  and  _205
REMARK   84  A    between atoms: _205  and  _206
REMARK   85  A    between atoms: _209  and  _211
REMARK   86  A    between atoms: _211  and  _212
REMARK   87  A    between atoms: _211  and  _214
REMARK   88  A    between atoms: _214  and  _215
REMARK   89  A    between atoms: _218  and  _220
REMARK   90  A    between atoms: _220  and  _221
REMARK   91  A    between atoms: _220  and  _223
REMARK   92  A    between atoms: _223  and  _224
REMARK   93  A    between atoms: _227  and  _229
REMARK   94  A    between atoms: _229  and  _230
REMARK   95  A    between atoms: _229  and  _232
REMARK   96  A    between atoms: _232  and  _233
REMARK   97  A    between atoms: _236  and  _238
REMARK   98  A    between atoms: _238  and  _239
REMARK   99  A    between atoms: _242  and  _244
REMARK  100  A    between atoms: _244  and  _245
REMARK  101  A    between atoms: _244  and  _247
REMARK  102  A    between atoms: _247  and  _248
REMARK  103  A    between atoms: _253  and  _254
REMARK  104  A    between atoms: _256  and  _258
REMARK  105  A    between atoms: _258  and  _259
REMARK  106  A    between atoms: _258  and  _261
REMARK  107  A    between atoms: _261  and  _262
REMARK  108  A    between atoms: _267  and  _269
REMARK  109  A    between atoms: _269  and  _270
REMARK  110  A    between atoms: _269  and  _272
REMARK  111  A    between atoms: _272  and  _273
REMARK  112  A    between atoms: _276  and  _278
REMARK  113  A    between atoms: _278  and  _279
REMARK  114  A    between atoms: _278  and  _281
REMARK  115  A    between atoms: _281  and  _282
REMARK  116  A    between atoms: _288  and  _290
REMARK  117  A    between atoms: _290  and  _291
REMARK  118  A    between atoms: _293  and  _295
REMARK  119  A    between atoms: _295  and  _296
REMARK  120  A    between atoms: _295  and  _298
REMARK  121  A    between atoms: _298  and  _299
REMARK  122  A    between atoms: _299  and  _300
REMARK  123  A    between atoms: _300  and  _301
REMARK  124  A    between atoms: _301  and  _302
REMARK  125  A    between atoms: _306  and  _308
REMARK  126  A    between atoms: _308  and  _309
REMARK  127  A    between atoms: _308  and  _311
REMARK  128  A    between atoms: _311  and  _312
REMARK  129  A    between atoms: _317  and  _318
REMARK  130  A    between atoms: _320  and  _322
REMARK  131  A    between atoms: _322  and  _323
REMARK  132  A    between atoms: _322  and  _325
REMARK  133  A    between atoms: _325  and  _326
REMARK  134  A    between atoms: _329  and  _331
REMARK  135  A    between atoms: _331  and  _332
REMARK  136  A    between atoms: _331  and  _334
REMARK  137  A    between atoms: _334  and  _335
REMARK  138  A    between atoms: _340  and  _341
REMARK  139  A    between atoms: _343  and  _345
REMARK  140  A    between atoms: _345  and  _346
REMARK  141  A    between atoms: _345  and  _348
REMARK  142  A    between atoms: _348  and  _349
REMARK  143  A    between atoms: _354  and  _355
REMARK  144  A    between atoms: _357  and  _359
REMARK  145  A    between atoms: _359  and  _360
REMARK  146  A    between atoms: _359  and  _362
REMARK  147  A    between atoms: _362  and  _363
REMARK  148  A    between atoms: _368  and  _369
REMARK  149  A    between atoms: _371  and  _373
REMARK  150  A    between atoms: _373  and  _374
REMARK  151  A    between atoms: _373  and  _376
REMARK  152  A    between atoms: _376  and  _377
REMARK  153  A    between atoms: _377  and  _378
REMARK  154  A    between atoms: _381  and  _383
REMARK  155  A    between atoms: _383  and  _384
REMARK  156  A    between atoms: _383  and  _386
REMARK  157  A    between atoms: _386  and  _387
REMARK  158  A    between atoms: _389  and  _391
REMARK  159  A    between atoms: _391  and  _392
REMARK  160  A    between atoms: _391  and  _394
REMARK  161  A    between atoms: _394  and  _395
REMARK  162  A    between atoms: _395  and  _505
REMARK  163  A    between atoms: _396  and  _398
REMARK  164  A    between atoms: _398  and  _399
REMARK  165  A    between atoms: _398  and  _401
REMARK  166  A    between atoms: _401  and  _402
REMARK  167  A    between atoms: _402  and  _403
REMARK  168  A    between atoms: _408  and  _410
REMARK  169  A    between atoms: _410  and  _411
REMARK  170  A    between atoms: _413  and  _415
REMARK  171  A    between atoms: _415  and  _416
REMARK  172  A    between atoms: _415  and  _418
REMARK  173  A    between atoms: _418  and  _419
REMARK  174  A    between atoms: _422  and  _424
REMARK  175  A    between atoms: _424  and  _425
REMARK  176  A    between atoms: _424  and  _427
REMARK  177  A    between atoms: _427  and  _428
REMARK  178  A    between atoms: _430  and  _432
REMARK  179  A    between atoms: _432  and  _433
REMARK  180  A    between atoms: _435  and  _437
REMARK  181  A    between atoms: _437  and  _438
REMARK  182  A    between atoms: _440  and  _442
REMARK  183  A    between atoms: _442  and  _443
REMARK  184  A    between atoms: _442  and  _445
REMARK  185  A    between atoms: _448  and  _450
REMARK  186  A    between atoms: _450  and  _451
REMARK  187  A    between atoms: _450  and  _453
REMARK  188  A    between atoms: _453  and  _454
REMARK  189  A    between atoms: _456  and  _458
REMARK  190  A    between atoms: _458  and  _459
REMARK  191  A    between atoms: _458  and  _461
REMARK  192  A    between atoms: _461  and  _462
REMARK  193  A    between atoms: _472  and  _474
REMARK  194  A    between atoms: _474  and  _475
REMARK  195  A    between atoms: _477  and  _479
REMARK  196  A    between atoms: _479  and  _480
REMARK  197  A    between atoms: _479  and  _482
REMARK  198  A    between atoms: _482  and  _483
REMARK  199  A    between atoms: _483  and  _484
REMARK  200  A    between atoms: _484  and  _485
REMARK  201  A    between atoms: _494  and  _496
REMARK  202  A    between atoms: _496  and  _497
REMARK  203  A    between atoms: _499  and  _501
REMARK  204  A    between atoms: _501  and  _502
REMARK  205  A    between atoms: _501  and  _504
REMARK  206  A    between atoms: _504  and  _505
REMARK  207  A    between atoms: _506  and  _508
REMARK  208  A    between atoms: _508  and  _509
REMARK  209  A    between atoms: _508  and  _511
REMARK  210  A    between atoms: _511  and  _512
REMARK  211  A    between atoms: _515  and  _517
REMARK  212  A    between atoms: _517  and  _518
REMARK  213  A    between atoms: _517  and  _520
REMARK  214  A    between atoms: _520  and  _521
REMARK  215  A    between atoms: _521  and  _522
REMARK  216  A    between atoms: _522  and  _523
REMARK  217  A    between atoms: _523  and  _524
REMARK  218  A    between atoms: _529  and  _530
REMARK  219  A    between atoms: _535  and  _537
REMARK  220  A    between atoms: _537  and  _538
REMARK  221  A    between atoms: _537  and  _540
REMARK                            x       y       z     vdW  Elec       q    Type
REMARK                         _______ _______ _______ _____ _____    ______ ____
ROOT
ATOM      1  O   HOH     1       7.250 -26.125 -23.520  0.00  0.00    +0.000 OA
ENDROOT
TORSDOF 0
REMARK  Name = ../refined-set-2016/4zhm/4zhm_pocket.pdb
REMARK  221 active torsions:
REMARK  status: ('A' for Active; 'I' for Inactive)
REMARK    1  A    between atoms: _1  and  _3
REMARK    2  A    between atoms: _3  and  _4
REMARK    3  A    between atoms: _3  and  _6
REMARK    4  A    between atoms: _6  and  _7
REMARK    5  A    between atoms: _10  and  _12
REMARK    6  A    between atoms: _12  and  _13
REMARK    7  A    between atoms: _12  and  _15
REMARK    8  A    between atoms: _15  and  _16
REMARK    9  A    between atoms: _16  and  _17
REMARK   10  A    between atoms: _17  and  _18
REMARK   11  A    between atoms: _27  and  _29
REMARK   12  A    between atoms: _29  and  _30
REMARK   13  A    between atoms: _29  and  _32
REMARK   14  A    between atoms: _32  and  _33
REMARK   15  A    between atoms: _38  and  _40
REMARK   16  A    between atoms: _40  and  _41
REMARK   17  A    between atoms: _40  and  _43
REMARK   18  A    between atoms: _43  and  _44
REMARK   19  A    between atoms: _47  and  _49
REMARK   20  A    between atoms: _49  and  _50
REMARK   21  A    between atoms: _49  and  _52
REMARK   22  A    between atoms: _52  and  _53
REMARK   23  A    between atoms: _58  and  _59
REMARK   24  A    between atoms: _61  and  _63
REMARK   25  A    between atoms: _63  and  _64
REMARK   26  A    between atoms: _63  and  _66
REMARK   27  A    between atoms: _69  and  _71
REMARK   28  A    between atoms: _71  and  _72
REMARK   29  A    between atoms: _71  and  _74
REMARK   30  A    between atoms: _74  and  _75
REMARK   31  A    between atoms: _75  and  _113
REMARK   32  A    between atoms: _76  and  _78
REMARK   33  A    between atoms: _78  and  _79
REMARK   34  A    between atoms: _81  and  _83
REMARK   35  A    between atoms: _83  and  _84
REMARK   36  A    between atoms: _87  and  _89
REMARK   37  A    between atoms: _89  and  _90
REMARK   38  A    between atoms: _89  and  _92
REMARK   39  A    between atoms: _92  and  _93
REMARK   40  A    between atoms: _96  and  _98
REMARK   41  A    between atoms: _98  and  _99
REMARK   42  A    between atoms: _98  and  _101
REMARK   43  A    between atoms: _101  and  _102
REMARK   44  A    between atoms: _107  and  _109
REMARK   45  A    between atoms: _109  and  _110
REMARK   46  A    between atoms: _109  and  _112
REMARK   47  A    between atoms: _112  and  _113
REMARK   48  A    between atoms: _114  and  _116
REMARK   49  A    between atoms: _116  and  _117
REMARK   50  A    between atoms: _116  and  _119
REMARK   51  A    between atoms: _119  and  _120
REMARK   52  A    between atoms: _126  and  _128
REMARK   53  A    between atoms: _128  and  _129
REMARK   54  A    between atoms: _128  and  _131
REMARK   55  A    between atoms: _131  and  _132
REMARK   56  A    between atoms: _135  and  _137
REMARK   57  A    between atoms: _137  and  _138
REMARK   58  A    between atoms: _137  and  _140
REMARK   59  A    between atoms: _140  and  _141
REMARK   60  A    between atoms: _144  and  _146
REMARK   61  A    between atoms: _146  and  _147
REMARK   62  A    between atoms: _146  and  _149
REMARK   63  A    between atoms: _149  and  _150
REMARK   64  A    between atoms: _155  and  _156
REMARK   65  A    between atoms: _158  and  _160
REMARK   66  A    between atoms: _160  and  _161
REMARK   67  A    between atoms: _160  and  _163
REMARK   68  A    between atoms: _163  and  _164
REMARK   69  A    between atoms: _169  and  _170
REMARK   70  A    between atoms: _172  and  _174
REMARK   71  A    between atoms: _174  and  _175
REMARK   72  A    between atoms: _174  and  _177
REMARK   73  A    between atoms: _177  and  _178
REMARK   74  A    between atoms: _181  and  _183
REMARK   75  A    between atoms: _183  and  _184
REMARK   76  A    between atoms: _183  and  _186
REMARK   77  A    between atoms: _186  and  _187
REMARK   78  A    between atoms: _192  and  _193
REMARK   79  A    between atoms: _195  and  _197
REMARK   80  A    between atoms: _197  and  _198
REMARK   81  A    between atoms: _197  and  _200
REMARK   82  A    between atoms: _200  and  _201
REMARK   83  A    between atoms: _203  and  _205
REMARK   84  A    between atoms: _205  and  _206
REMARK   85  A    between atoms: _209  and  _211
REMARK   86  A    between atoms: _211  and  _212
REMARK   87  A    between atoms: _211  and  _214
REMARK   88  A    between atoms: _214  and  _215
REMARK   89  A    between atoms: _218  and  _220
REMARK   90  A    between atoms: _220  and  _221
REMARK   91  A    between atoms: _220  and  _223
REMARK   92  A    between atoms: _223  and  _224
REMARK   93  A    between atoms: _227  and  _229
REMARK   94  A    between atoms: _229  and  _230
REMARK   95  A    between atoms: _229  and  _232
REMARK   96  A    between atoms: _232  and  _233
REMARK   97  A    between atoms: _236  and  _238
REMARK   98  A    between atoms: _238  and  _239
REMARK   99  A    between atoms: _242  and  _244
REMARK  100  A    between atoms: _244  and  _245
REMARK  101  A    between atoms: _244  and  _247
REMARK  102  A    between atoms: _247  and  _248
REMARK  103  A    between atoms: _253  and  _254
REMARK  104  A    between atoms: _256  and  _258
REMARK  105  A    between atoms: _258  and  _259
REMARK  106  A    between atoms: _258  and  _261
REMARK  107  A    between atoms: _261  and  _262
REMARK  108  A    between atoms: _267  and  _269
REMARK  109  A    between atoms: _269  and  _270
REMARK  110  A    between atoms: _269  and  _272
REMARK  111  A    between atoms: _272  and  _273
REMARK  112  A    between atoms: _276  and  _278
REMARK  113  A    between atoms: _278  and  _279
REMARK  114  A    between atoms: _278  and  _281
REMARK  115  A    between atoms: _281  and  _282
REMARK  116  A    between atoms: _288  and  _290
REMARK  117  A    between atoms: _290  and  _291
REMARK  118  A    between atoms: _293  and  _295
REMARK  119  A    between atoms: _295  and  _296
REMARK  120  A    between atoms: _295  and  _298
REMARK  121  A    between atoms: _298  and  _299
REMARK  122  A    between atoms: _299  and  _300
REMARK  123  A    between atoms: _300  and  _301
REMARK  124  A    between atoms: _301  and  _302
REMARK  125  A    between atoms: _306  and  _308
REMARK  126  A    between atoms: _308  and  _309
REMARK  127  A    between atoms: _308  and  _311
REMARK  128  A    between atoms: _311  and  _312
REMARK  129  A    between atoms: _317  and  _318
REMARK  130  A    between atoms: _320  and  _322
REMARK  131  A    between atoms: _322  and  _323
REMARK  132  A    between atoms: _322  and  _325
REMARK  133  A    between atoms: _325  and  _326
REMARK  134  A    between atoms: _329  and  _331
REMARK  135  A    between atoms: _331  and  _332
REMARK  136  A    between atoms: _331  and  _334
REMARK  137  A    between atoms: _334  and  _335
REMARK  138  A    between atoms: _340  and  _341
REMARK  139  A    between atoms: _343  and  _345
REMARK  140  A    between atoms: _345  and  _346
REMARK  141  A    between atoms: _345  and  _348
REMARK  142  A    between atoms: _348  and  _349
REMARK  143  A    between atoms: _354  and  _355
REMARK  144  A    between atoms: _357  and  _359
REMARK  145  A    between atoms: _359  and  _360
REMARK  146  A    between atoms: _359  and  _362
REMARK  147  A    between atoms: _362  and  _363
REMARK  148  A    between atoms: _368  and  _369
REMARK  149  A    between atoms: _371  and  _373
REMARK  150  A    between atoms: _373  and  _374
REMARK  151  A    between atoms: _373  and  _376
REMARK  152  A    between atoms: _376  and  _377
REMARK  153  A    between atoms: _377  and  _378
REMARK  154  A    between atoms: _381  and  _383
REMARK  155  A    between atoms: _383  and  _384
REMARK  156  A    between atoms: _383  and  _386
REMARK  157  A    between atoms: _386  and  _387
REMARK  158  A    between atoms: _389  and  _391
REMARK  159  A    between atoms: _391  and  _392
REMARK  160  A    between atoms: _391  and  _394
REMARK  161  A    between atoms: _394  and  _395
REMARK  162  A    between atoms: _395  and  _505
REMARK  163  A    between atoms: _396  and  _398
REMARK  164  A    between atoms: _398  and  _399
REMARK  165  A    between atoms: _398  and  _401
REMARK  166  A    between atoms: _401  and  _402
REMARK  167  A    between atoms: _402  and  _403
REMARK  168  A    between atoms: _408  and  _410
REMARK  169  A    between atoms: _410  and  _411
REMARK  170  A    between atoms: _413  and  _415
REMARK  171  A    between atoms: _415  and  _416
REMARK  172  A    between atoms: _415  and  _418
REMARK  173  A    between atoms: _418  and  _419
REMARK  174  A    between atoms: _422  and  _424
REMARK  175  A    between atoms: _424  and  _425
REMARK  176  A    between atoms: _424  and  _427
REMARK  177  A    between atoms: _427  and  _428
REMARK  178  A    between atoms: _430  and  _432
REMARK  179  A    between atoms: _432  and  _433
REMARK  180  A    between atoms: _435  and  _437
REMARK  181  A    between atoms: _437  and  _438
REMARK  182  A    between atoms: _440  and  _442
REMARK  183  A    between atoms: _442  and  _443
REMARK  184  A    between atoms: _442  and  _445
REMARK  185  A    between atoms: _448  and  _450
REMARK  186  A    between atoms: _450  and  _451
REMARK  187  A    between atoms: _450  and  _453
REMARK  188  A    between atoms: _453  and  _454
REMARK  189  A    between atoms: _456  and  _458
REMARK  190  A    between atoms: _458  and  _459
REMARK  191  A    between atoms: _458  and  _461
REMARK  192  A    between atoms: _461  and  _462
REMARK  193  A    between atoms: _472  and  _474
REMARK  194  A    between atoms: _474  and  _475
REMARK  195  A    between atoms: _477  and  _479
REMARK  196  A    between atoms: _479  and  _480
REMARK  197  A    between atoms: _479  and  _482
REMARK  198  A    between atoms: _482  and  _483
REMARK  199  A    between atoms: _483  and  _484
REMARK  200  A    between atoms: _484  and  _485
REMARK  201  A    between atoms: _494  and  _496
REMARK  202  A    between atoms: _496  and  _497
REMARK  203  A    between atoms: _499  and  _501
REMARK  204  A    between atoms: _501  and  _502
REMARK  205  A    between atoms: _501  and  _504
REMARK  206  A    between atoms: _504  and  _505
REMARK  207  A    between atoms: _506  and  _508
REMARK  208  A    between atoms: _508  and  _509
REMARK  209  A    between atoms: _508  and  _511
REMARK  210  A    between atoms: _511  and  _512
REMARK  211  A    between atoms: _515  and  _517
REMARK  212  A    between atoms: _517  and  _518
REMARK  213  A    between atoms: _517  and  _520
REMARK  214  A    between atoms: _520  and  _521
REMARK  215  A    between atoms: _521  and  _522
REMARK  216  A    between atoms: _522  and  _523
REMARK  217  A    between atoms: _523  and  _524
REMARK  218  A    between atoms: _529  and  _530
REMARK  219  A    between atoms: _535  and  _537
REMARK  220  A    between atoms: _537  and  _538
REMARK  221  A    between atoms: _537  and  _540
REMARK                            x       y       z     vdW  Elec       q    Type
REMARK                         _______ _______ _______ _____ _____    ______ ____
ROOT
ATOM      1  O   HOH     1      -6.085 -30.319 -17.791  0.00  0.00    +0.000 OA
ENDROOT
TORSDOF 0
REMARK  Name = ../refined-set-2016/4zhm/4zhm_pocket.pdb
REMARK  221 active torsions:
REMARK  status: ('A' for Active; 'I' for Inactive)
REMARK    1  A    between atoms: _1  and  _3
REMARK    2  A    between atoms: _3  and  _4
REMARK    3  A    between atoms: _3  and  _6
REMARK    4  A    between atoms: _6  and  _7
REMARK    5  A    between atoms: _10  and  _12
REMARK    6  A    between atoms: _12  and  _13
REMARK    7  A    between atoms: _12  and  _15
REMARK    8  A    between atoms: _15  and  _16
REMARK    9  A    between atoms: _16  and  _17
REMARK   10  A    between atoms: _17  and  _18
REMARK   11  A    between atoms: _27  and  _29
REMARK   12  A    between atoms: _29  and  _30
REMARK   13  A    between atoms: _29  and  _32
REMARK   14  A    between atoms: _32  and  _33
REMARK   15  A    between atoms: _38  and  _40
REMARK   16  A    between atoms: _40  and  _41
REMARK   17  A    between atoms: _40  and  _43
REMARK   18  A    between atoms: _43  and  _44
REMARK   19  A    between atoms: _47  and  _49
REMARK   20  A    between atoms: _49  and  _50
REMARK   21  A    between atoms: _49  and  _52
REMARK   22  A    between atoms: _52  and  _53
REMARK   23  A    between atoms: _58  and  _59
REMARK   24  A    between atoms: _61  and  _63
REMARK   25  A    between atoms: _63  and  _64
REMARK   26  A    between atoms: _63  and  _66
REMARK   27  A    between atoms: _69  and  _71
REMARK   28  A    between atoms: _71  and  _72
REMARK   29  A    between atoms: _71  and  _74
REMARK   30  A    between atoms: _74  and  _75
REMARK   31  A    between atoms: _75  and  _113
REMARK   32  A    between atoms: _76  and  _78
REMARK   33  A    between atoms: _78  and  _79
REMARK   34  A    between atoms: _81  and  _83
REMARK   35  A    between atoms: _83  and  _84
REMARK   36  A    between atoms: _87  and  _89
REMARK   37  A    between atoms: _89  and  _90
REMARK   38  A    between atoms: _89  and  _92
REMARK   39  A    between atoms: _92  and  _93
REMARK   40  A    between atoms: _96  and  _98
REMARK   41  A    between atoms: _98  and  _99
REMARK   42  A    between atoms: _98  and  _101
REMARK   43  A    between atoms: _101  and  _102
REMARK   44  A    between atoms: _107  and  _109
REMARK   45  A    between atoms: _109  and  _110
REMARK   46  A    between atoms: _109  and  _112
REMARK   47  A    between atoms: _112  and  _113
REMARK   48  A    between atoms: _114  and  _116
REMARK   49  A    between atoms: _116  and  _117
REMARK   50  A    between atoms: _116  and  _119
REMARK   51  A    between atoms: _119  and  _120
REMARK   52  A    between atoms: _126  and  _128
REMARK   53  A    between atoms: _128  and  _129
REMARK   54  A    between atoms: _128  and  _131
REMARK   55  A    between atoms: _131  and  _132
REMARK   56  A    between atoms: _135  and  _137
REMARK   57  A    between atoms: _137  and  _138
REMARK   58  A    between atoms: _137  and  _140
REMARK   59  A    between atoms: _140  and  _141
REMARK   60  A    between atoms: _144  and  _146
REMARK   61  A    between atoms: _146  and  _147
REMARK   62  A    between atoms: _146  and  _149
REMARK   63  A    between atoms: _149  and  _150
REMARK   64  A    between atoms: _155  and  _156
REMARK   65  A    between atoms: _158  and  _160
REMARK   66  A    between atoms: _160  and  _161
REMARK   67  A    between atoms: _160  and  _163
REMARK   68  A    between atoms: _163  and  _164
REMARK   69  A    between atoms: _169  and  _170
REMARK   70  A    between atoms: _172  and  _174
REMARK   71  A    between atoms: _174  and  _175
REMARK   72  A    between atoms: _174  and  _177
REMARK   73  A    between atoms: _177  and  _178
REMARK   74  A    between atoms: _181  and  _183
REMARK   75  A    between atoms: _183  and  _184
REMARK   76  A    between atoms: _183  and  _186
REMARK   77  A    between atoms: _186  and  _187
REMARK   78  A    between atoms: _192  and  _193
REMARK   79  A    between atoms: _195  and  _197
REMARK   80  A    between atoms: _197  and  _198
REMARK   81  A    between atoms: _197  and  _200
REMARK   82  A    between atoms: _200  and  _201
REMARK   83  A    between atoms: _203  and  _205
REMARK   84  A    between atoms: _205  and  _206
REMARK   85  A    between atoms: _209  and  _211
REMARK   86  A    between atoms: _211  and  _212
REMARK   87  A    between atoms: _211  and  _214
REMARK   88  A    between atoms: _214  and  _215
REMARK   89  A    between atoms: _218  and  _220
REMARK   90  A    between atoms: _220  and  _221
REMARK   91  A    between atoms: _220  and  _223
REMARK   92  A    between atoms: _223  and  _224
REMARK   93  A    between atoms: _227  and  _229
REMARK   94  A    between atoms: _229  and  _230
REMARK   95  A    between atoms: _229  and  _232
REMARK   96  A    between atoms: _232  and  _233
REMARK   97  A    between atoms: _236  and  _238
REMARK   98  A    between atoms: _238  and  _239
REMARK   99  A    between atoms: _242  and  _244
REMARK  100  A    between atoms: _244  and  _245
REMARK  101  A    between atoms: _244  and  _247
REMARK  102  A    between atoms: _247  and  _248
REMARK  103  A    between atoms: _253  and  _254
REMARK  104  A    between atoms: _256  and  _258
REMARK  105  A    between atoms: _258  and  _259
REMARK  106  A    between atoms: _258  and  _261
REMARK  107  A    between atoms: _261  and  _262
REMARK  108  A    between atoms: _267  and  _269
REMARK  109  A    between atoms: _269  and  _270
REMARK  110  A    between atoms: _269  and  _272
REMARK  111  A    between atoms: _272  and  _273
REMARK  112  A    between atoms: _276  and  _278
REMARK  113  A    between atoms: _278  and  _279
REMARK  114  A    between atoms: _278  and  _281
REMARK  115  A    between atoms: _281  and  _282
REMARK  116  A    between atoms: _288  and  _290
REMARK  117  A    between atoms: _290  and  _291
REMARK  118  A    between atoms: _293  and  _295
REMARK  119  A    between atoms: _295  and  _296
REMARK  120  A    between atoms: _295  and  _298
REMARK  121  A    between atoms: _298  and  _299
REMARK  122  A    between atoms: _299  and  _300
REMARK  123  A    between atoms: _300  and  _301
REMARK  124  A    between atoms: _301  and  _302
REMARK  125  A    between atoms: _306  and  _308
REMARK  126  A    between atoms: _308  and  _309
REMARK  127  A    between atoms: _308  and  _311
REMARK  128  A    between atoms: _311  and  _312
REMARK  129  A    between atoms: _317  and  _318
REMARK  130  A    between atoms: _320  and  _322
REMARK  131  A    between atoms: _322  and  _323
REMARK  132  A    between atoms: _322  and  _325
REMARK  133  A    between atoms: _325  and  _326
REMARK  134  A    between atoms: _329  and  _331
REMARK  135  A    between atoms: _331  and  _332
REMARK  136  A    between atoms: _331  and  _334
REMARK  137  A    between atoms: _334  and  _335
REMARK  138  A    between atoms: _340  and  _341
REMARK  139  A    between atoms: _343  and  _345
REMARK  140  A    between atoms: _345  and  _346
REMARK  141  A    between atoms: _345  and  _348
REMARK  142  A    between atoms: _348  and  _349
REMARK  143  A    between atoms: _354  and  _355
REMARK  144  A    between atoms: _357  and  _359
REMARK  145  A    between atoms: _359  and  _360
REMARK  146  A    between atoms: _359  and  _362
REMARK  147  A    between atoms: _362  and  _363
REMARK  148  A    between atoms: _368  and  _369
REMARK  149  A    between atoms: _371  and  _373
REMARK  150  A    between atoms: _373  and  _374
REMARK  151  A    between atoms: _373  and  _376
REMARK  152  A    between atoms: _376  and  _377
REMARK  153  A    between atoms: _377  and  _378
REMARK  154  A    between atoms: _381  and  _383
REMARK  155  A    between atoms: _383  and  _384
REMARK  156  A    between atoms: _383  and  _386
REMARK  157  A    between atoms: _386  and  _387
REMARK  158  A    between atoms: _389  and  _391
REMARK  159  A    between atoms: _391  and  _392
REMARK  160  A    between atoms: _391  and  _394
REMARK  161  A    between atoms: _394  and  _395
REMARK  162  A    between atoms: _395  and  _505
REMARK  163  A    between atoms: _396  and  _398
REMARK  164  A    between atoms: _398  and  _399
REMARK  165  A    between atoms: _398  and  _401
REMARK  166  A    between atoms: _401  and  _402
REMARK  167  A    between atoms: _402  and  _403
REMARK  168  A    between atoms: _408  and  _410
REMARK  169  A    between atoms: _410  and  _411
REMARK  170  A    between atoms: _413  and  _415
REMARK  171  A    between atoms: _415  and  _416
REMARK  172  A    between atoms: _415  and  _418
REMARK  173  A    between atoms: _418  and  _419
REMARK  174  A    between atoms: _422  and  _424
REMARK  175  A    between atoms: _424  and  _425
REMARK  176  A    between atoms: _424  and  _427
REMARK  177  A    between atoms: _427  and  _428
REMARK  178  A    between atoms: _430  and  _432
REMARK  179  A    between atoms: _432  and  _433
REMARK  180  A    between atoms: _435  and  _437
REMARK  181  A    between atoms: _437  and  _438
REMARK  182  A    between atoms: _440  and  _442
REMARK  183  A    between atoms: _442  and  _443
REMARK  184  A    between atoms: _442  and  _445
REMARK  185  A    between atoms: _448  and  _450
REMARK  186  A    between atoms: _450  and  _451
REMARK  187  A    between atoms: _450  and  _453
REMARK  188  A    between atoms: _453  and  _454
REMARK  189  A    between atoms: _456  and  _458
REMARK  190  A    between atoms: _458  and  _459
REMARK  191  A    between atoms: _458  and  _461
REMARK  192  A    between atoms: _461  and  _462
REMARK  193  A    between atoms: _472  and  _474
REMARK  194  A    between atoms: _474  and  _475
REMARK  195  A    between atoms: _477  and  _479
REMARK  196  A    between atoms: _479  and  _480
REMARK  197  A    between atoms: _479  and  _482
REMARK  198  A    between atoms: _482  and  _483
REMARK  199  A    between atoms: _483  and  _484
REMARK  200  A    between atoms: _484  and  _485
REMARK  201  A    between atoms: _494  and  _496
REMARK  202  A    between atoms: _496  and  _497
REMARK  203  A    between atoms: _499  and  _501
REMARK  204  A    between atoms: _501  and  _502
REMARK  205  A    between atoms: _501  and  _504
REMARK  206  A    between atoms: _504  and  _505
REMARK  207  A    between atoms: _506  and  _508
REMARK  208  A    between atoms: _508  and  _509
REMARK  209  A    between atoms: _508  and  _511
REMARK  210  A    between atoms: _511  and  _512
REMARK  211  A    between atoms: _515  and  _517
REMARK  212  A    between atoms: _517  and  _518
REMARK  213  A    between atoms: _517  and  _520
REMARK  214  A    between atoms: _520  and  _521
REMARK  215  A    between atoms: _521  and  _522
REMARK  216  A    between atoms: _522  and  _523
REMARK  217  A    between atoms: _523  and  _524
REMARK  218  A    between atoms: _529  and  _530
REMARK  219  A    between atoms: _535  and  _537
REMARK  220  A    between atoms: _537  and  _538
REMARK  221  A    between atoms: _537  and  _540
REMARK                            x       y       z     vdW  Elec       q    Type
REMARK                         _______ _______ _______ _____ _____    ______ ____
ROOT
ATOM      1  O   HOH     1      10.320 -25.134 -21.875  0.00  0.00    +0.000 OA
ENDROOT
TORSDOF 0
REMARK  Name = ../refined-set-2016/4zhm/4zhm_pocket.pdb
REMARK  221 active torsions:
REMARK  status: ('A' for Active; 'I' for Inactive)
REMARK    1  A    between atoms: _1  and  _3
REMARK    2  A    between atoms: _3  and  _4
REMARK    3  A    between atoms: _3  and  _6
REMARK    4  A    between atoms: _6  and  _7
REMARK    5  A    between atoms: _10  and  _12
REMARK    6  A    between atoms: _12  and  _13
REMARK    7  A    between atoms: _12  and  _15
REMARK    8  A    between atoms: _15  and  _16
REMARK    9  A    between atoms: _16  and  _17
REMARK   10  A    between atoms: _17  and  _18
REMARK   11  A    between atoms: _27  and  _29
REMARK   12  A    between atoms: _29  and  _30
REMARK   13  A    between atoms: _29  and  _32
REMARK   14  A    between atoms: _32  and  _33
REMARK   15  A    between atoms: _38  and  _40
REMARK   16  A    between atoms: _40  and  _41
REMARK   17  A    between atoms: _40  and  _43
REMARK   18  A    between atoms: _43  and  _44
REMARK   19  A    between atoms: _47  and  _49
REMARK   20  A    between atoms: _49  and  _50
REMARK   21  A    between atoms: _49  and  _52
REMARK   22  A    between atoms: _52  and  _53
REMARK   23  A    between atoms: _58  and  _59
REMARK   24  A    between atoms: _61  and  _63
REMARK   25  A    between atoms: _63  and  _64
REMARK   26  A    between atoms: _63  and  _66
REMARK   27  A    between atoms: _69  and  _71
REMARK   28  A    between atoms: _71  and  _72
REMARK   29  A    between atoms: _71  and  _74
REMARK   30  A    between atoms: _74  and  _75
REMARK   31  A    between atoms: _75  and  _113
REMARK   32  A    between atoms: _76  and  _78
REMARK   33  A    between atoms: _78  and  _79
REMARK   34  A    between atoms: _81  and  _83
REMARK   35  A    between atoms: _83  and  _84
REMARK   36  A    between atoms: _87  and  _89
REMARK   37  A    between atoms: _89  and  _90
REMARK   38  A    between atoms: _89  and  _92
REMARK   39  A    between atoms: _92  and  _93
REMARK   40  A    between atoms: _96  and  _98
REMARK   41  A    between atoms: _98  and  _99
REMARK   42  A    between atoms: _98  and  _101
REMARK   43  A    between atoms: _101  and  _102
REMARK   44  A    between atoms: _107  and  _109
REMARK   45  A    between atoms: _109  and  _110
REMARK   46  A    between atoms: _109  and  _112
REMARK   47  A    between atoms: _112  and  _113
REMARK   48  A    between atoms: _114  and  _116
REMARK   49  A    between atoms: _116  and  _117
REMARK   50  A    between atoms: _116  and  _119
REMARK   51  A    between atoms: _119  and  _120
REMARK   52  A    between atoms: _126  and  _128
REMARK   53  A    between atoms: _128  and  _129
REMARK   54  A    between atoms: _128  and  _131
REMARK   55  A    between atoms: _131  and  _132
REMARK   56  A    between atoms: _135  and  _137
REMARK   57  A    between atoms: _137  and  _138
REMARK   58  A    between atoms: _137  and  _140
REMARK   59  A    between atoms: _140  and  _141
REMARK   60  A    between atoms: _144  and  _146
REMARK   61  A    between atoms: _146  and  _147
REMARK   62  A    between atoms: _146  and  _149
REMARK   63  A    between atoms: _149  and  _150
REMARK   64  A    between atoms: _155  and  _156
REMARK   65  A    between atoms: _158  and  _160
REMARK   66  A    between atoms: _160  and  _161
REMARK   67  A    between atoms: _160  and  _163
REMARK   68  A    between atoms: _163  and  _164
REMARK   69  A    between atoms: _169  and  _170
REMARK   70  A    between atoms: _172  and  _174
REMARK   71  A    between atoms: _174  and  _175
REMARK   72  A    between atoms: _174  and  _177
REMARK   73  A    between atoms: _177  and  _178
REMARK   74  A    between atoms: _181  and  _183
REMARK   75  A    between atoms: _183  and  _184
REMARK   76  A    between atoms: _183  and  _186
REMARK   77  A    between atoms: _186  and  _187
REMARK   78  A    between atoms: _192  and  _193
REMARK   79  A    between atoms: _195  and  _197
REMARK   80  A    between atoms: _197  and  _198
REMARK   81  A    between atoms: _197  and  _200
REMARK   82  A    between atoms: _200  and  _201
REMARK   83  A    between atoms: _203  and  _205
REMARK   84  A    between atoms: _205  and  _206
REMARK   85  A    between atoms: _209  and  _211
REMARK   86  A    between atoms: _211  and  _212
REMARK   87  A    between atoms: _211  and  _214
REMARK   88  A    between atoms: _214  and  _215
REMARK   89  A    between atoms: _218  and  _220
REMARK   90  A    between atoms: _220  and  _221
REMARK   91  A    between atoms: _220  and  _223
REMARK   92  A    between atoms: _223  and  _224
REMARK   93  A    between atoms: _227  and  _229
REMARK   94  A    between atoms: _229  and  _230
REMARK   95  A    between atoms: _229  and  _232
REMARK   96  A    between atoms: _232  and  _233
REMARK   97  A    between atoms: _236  and  _238
REMARK   98  A    between atoms: _238  and  _239
REMARK   99  A    between atoms: _242  and  _244
REMARK  100  A    between atoms: _244  and  _245
REMARK  101  A    between atoms: _244  and  _247
REMARK  102  A    between atoms: _247  and  _248
REMARK  103  A    between atoms: _253  and  _254
REMARK  104  A    between atoms: _256  and  _258
REMARK  105  A    between atoms: _258  and  _259
REMARK  106  A    between atoms: _258  and  _261
REMARK  107  A    between atoms: _261  and  _262
REMARK  108  A    between atoms: _267  and  _269
REMARK  109  A    between atoms: _269  and  _270
REMARK  110  A    between atoms: _269  and  _272
REMARK  111  A    between atoms: _272  and  _273
REMARK  112  A    between atoms: _276  and  _278
REMARK  113  A    between atoms: _278  and  _279
REMARK  114  A    between atoms: _278  and  _281
REMARK  115  A    between atoms: _281  and  _282
REMARK  116  A    between atoms: _288  and  _290
REMARK  117  A    between atoms: _290  and  _291
REMARK  118  A    between atoms: _293  and  _295
REMARK  119  A    between atoms: _295  and  _296
REMARK  120  A    between atoms: _295  and  _298
REMARK  121  A    between atoms: _298  and  _299
REMARK  122  A    between atoms: _299  and  _300
REMARK  123  A    between atoms: _300  and  _301
REMARK  124  A    between atoms: _301  and  _302
REMARK  125  A    between atoms: _306  and  _308
REMARK  126  A    between atoms: _308  and  _309
REMARK  127  A    between atoms: _308  and  _311
REMARK  128  A    between atoms: _311  and  _312
REMARK  129  A    between atoms: _317  and  _318
REMARK  130  A    between atoms: _320  and  _322
REMARK  131  A    between atoms: _322  and  _323
REMARK  132  A    between atoms: _322  and  _325
REMARK  133  A    between atoms: _325  and  _326
REMARK  134  A    between atoms: _329  and  _331
REMARK  135  A    between atoms: _331  and  _332
REMARK  136  A    between atoms: _331  and  _334
REMARK  137  A    between atoms: _334  and  _335
REMARK  138  A    between atoms: _340  and  _341
REMARK  139  A    between atoms: _343  and  _345
REMARK  140  A    between atoms: _345  and  _346
REMARK  141  A    between atoms: _345  and  _348
REMARK  142  A    between atoms: _348  and  _349
REMARK  143  A    between atoms: _354  and  _355
REMARK  144  A    between atoms: _357  and  _359
REMARK  145  A    between atoms: _359  and  _360
REMARK  146  A    between atoms: _359  and  _362
REMARK  147  A    between atoms: _362  and  _363
REMARK  148  A    between atoms: _368  and  _369
REMARK  149  A    between atoms: _371  and  _373
REMARK  150  A    between atoms: _373  and  _374
REMARK  151  A    between atoms: _373  and  _376
REMARK  152  A    between atoms: _376  and  _377
REMARK  153  A    between atoms: _377  and  _378
REMARK  154  A    between atoms: _381  and  _383
REMARK  155  A    between atoms: _383  and  _384
REMARK  156  A    between atoms: _383  and  _386
REMARK  157  A    between atoms: _386  and  _387
REMARK  158  A    between atoms: _389  and  _391
REMARK  159  A    between atoms: _391  and  _392
REMARK  160  A    between atoms: _391  and  _394
REMARK  161  A    between atoms: _394  and  _395
REMARK  162  A    between atoms: _395  and  _505
REMARK  163  A    between atoms: _396  and  _398
REMARK  164  A    between atoms: _398  and  _399
REMARK  165  A    between atoms: _398  and  _401
REMARK  166  A    between atoms: _401  and  _402
REMARK  167  A    between atoms: _402  and  _403
REMARK  168  A    between atoms: _408  and  _410
REMARK  169  A    between atoms: _410  and  _411
REMARK  170  A    between atoms: _413  and  _415
REMARK  171  A    between atoms: _415  and  _416
REMARK  172  A    between atoms: _415  and  _418
REMARK  173  A    between atoms: _418  and  _419
REMARK  174  A    between atoms: _422  and  _424
REMARK  175  A    between atoms: _424  and  _425
REMARK  176  A    between atoms: _424  and  _427
REMARK  177  A    between atoms: _427  and  _428
REMARK  178  A    between atoms: _430  and  _432
REMARK  179  A    between atoms: _432  and  _433
REMARK  180  A    between atoms: _435  and  _437
REMARK  181  A    between atoms: _437  and  _438
REMARK  182  A    between atoms: _440  and  _442
REMARK  183  A    between atoms: _442  and  _443
REMARK  184  A    between atoms: _442  and  _445
REMARK  185  A    between atoms: _448  and  _450
REMARK  186  A    between atoms: _450  and  _451
REMARK  187  A    between atoms: _450  and  _453
REMARK  188  A    between atoms: _453  and  _454
REMARK  189  A    between atoms: _456  and  _458
REMARK  190  A    between atoms: _458  and  _459
REMARK  191  A    between atoms: _458  and  _461
REMARK  192  A    between atoms: _461  and  _462
REMARK  193  A    between atoms: _472  and  _474
REMARK  194  A    between atoms: _474  and  _475
REMARK  195  A    between atoms: _477  and  _479
REMARK  196  A    between atoms: _479  and  _480
REMARK  197  A    between atoms: _479  and  _482
REMARK  198  A    between atoms: _482  and  _483
REMARK  199  A    between atoms: _483  and  _484
REMARK  200  A    between atoms: _484  and  _485
REMARK  201  A    between atoms: _494  and  _496
REMARK  202  A    between atoms: _496  and  _497
REMARK  203  A    between atoms: _499  and  _501
REMARK  204  A    between atoms: _501  and  _502
REMARK  205  A    between atoms: _501  and  _504
REMARK  206  A    between atoms: _504  and  _505
REMARK  207  A    between atoms: _506  and  _508
REMARK  208  A    between atoms: _508  and  _509
REMARK  209  A    between atoms: _508  and  _511
REMARK  210  A    between atoms: _511  and  _512
REMARK  211  A    between atoms: _515  and  _517
REMARK  212  A    between atoms: _517  and  _518
REMARK  213  A    between atoms: _517  and  _520
REMARK  214  A    between atoms: _520  and  _521
REMARK  215  A    between atoms: _521  and  _522
REMARK  216  A    between atoms: _522  and  _523
REMARK  217  A    between atoms: _523  and  _524
REMARK  218  A    between atoms: _529  and  _530
REMARK  219  A    between atoms: _535  and  _537
REMARK  220  A    between atoms: _537  and  _538
REMARK  221  A    between atoms: _537  and  _540
REMARK                            x       y       z     vdW  Elec       q    Type
REMARK                         _______ _______ _______ _____ _____    ______ ____
ROOT
ATOM      1  O   HOH     1      -1.162 -27.383 -20.941  0.00  0.00    +0.000 OA
ENDROOT
TORSDOF 0
REMARK  Name = ../refined-set-2016/4zhm/4zhm_pocket.pdb
REMARK  221 active torsions:
REMARK  status: ('A' for Active; 'I' for Inactive)
REMARK    1  A    between atoms: _1  and  _3
REMARK    2  A    between atoms: _3  and  _4
REMARK    3  A    between atoms: _3  and  _6
REMARK    4  A    between atoms: _6  and  _7
REMARK    5  A    between atoms: _10  and  _12
REMARK    6  A    between atoms: _12  and  _13
REMARK    7  A    between atoms: _12  and  _15
REMARK    8  A    between atoms: _15  and  _16
REMARK    9  A    between atoms: _16  and  _17
REMARK   10  A    between atoms: _17  and  _18
REMARK   11  A    between atoms: _27  and  _29
REMARK   12  A    between atoms: _29  and  _30
REMARK   13  A    between atoms: _29  and  _32
REMARK   14  A    between atoms: _32  and  _33
REMARK   15  A    between atoms: _38  and  _40
REMARK   16  A    between atoms: _40  and  _41
REMARK   17  A    between atoms: _40  and  _43
REMARK   18  A    between atoms: _43  and  _44
REMARK   19  A    between atoms: _47  and  _49
REMARK   20  A    between atoms: _49  and  _50
REMARK   21  A    between atoms: _49  and  _52
REMARK   22  A    between atoms: _52  and  _53
REMARK   23  A    between atoms: _58  and  _59
REMARK   24  A    between atoms: _61  and  _63
REMARK   25  A    between atoms: _63  and  _64
REMARK   26  A    between atoms: _63  and  _66
REMARK   27  A    between atoms: _69  and  _71
REMARK   28  A    between atoms: _71  and  _72
REMARK   29  A    between atoms: _71  and  _74
REMARK   30  A    between atoms: _74  and  _75
REMARK   31  A    between atoms: _75  and  _113
REMARK   32  A    between atoms: _76  and  _78
REMARK   33  A    between atoms: _78  and  _79
REMARK   34  A    between atoms: _81  and  _83
REMARK   35  A    between atoms: _83  and  _84
REMARK   36  A    between atoms: _87  and  _89
REMARK   37  A    between atoms: _89  and  _90
REMARK   38  A    between atoms: _89  and  _92
REMARK   39  A    between atoms: _92  and  _93
REMARK   40  A    between atoms: _96  and  _98
REMARK   41  A    between atoms: _98  and  _99
REMARK   42  A    between atoms: _98  and  _101
REMARK   43  A    between atoms: _101  and  _102
REMARK   44  A    between atoms: _107  and  _109
REMARK   45  A    between atoms: _109  and  _110
REMARK   46  A    between atoms: _109  and  _112
REMARK   47  A    between atoms: _112  and  _113
REMARK   48  A    between atoms: _114  and  _116
REMARK   49  A    between atoms: _116  and  _117
REMARK   50  A    between atoms: _116  and  _119
REMARK   51  A    between atoms: _119  and  _120
REMARK   52  A    between atoms: _126  and  _128
REMARK   53  A    between atoms: _128  and  _129
REMARK   54  A    between atoms: _128  and  _131
REMARK   55  A    between atoms: _131  and  _132
REMARK   56  A    between atoms: _135  and  _137
REMARK   57  A    between atoms: _137  and  _138
REMARK   58  A    between atoms: _137  and  _140
REMARK   59  A    between atoms: _140  and  _141
REMARK   60  A    between atoms: _144  and  _146
REMARK   61  A    between atoms: _146  and  _147
REMARK   62  A    between atoms: _146  and  _149
REMARK   63  A    between atoms: _149  and  _150
REMARK   64  A    between atoms: _155  and  _156
REMARK   65  A    between atoms: _158  and  _160
REMARK   66  A    between atoms: _160  and  _161
REMARK   67  A    between atoms: _160  and  _163
REMARK   68  A    between atoms: _163  and  _164
REMARK   69  A    between atoms: _169  and  _170
REMARK   70  A    between atoms: _172  and  _174
REMARK   71  A    between atoms: _174  and  _175
REMARK   72  A    between atoms: _174  and  _177
REMARK   73  A    between atoms: _177  and  _178
REMARK   74  A    between atoms: _181  and  _183
REMARK   75  A    between atoms: _183  and  _184
REMARK   76  A    between atoms: _183  and  _186
REMARK   77  A    between atoms: _186  and  _187
REMARK   78  A    between atoms: _192  and  _193
REMARK   79  A    between atoms: _195  and  _197
REMARK   80  A    between atoms: _197  and  _198
REMARK   81  A    between atoms: _197  and  _200
REMARK   82  A    between atoms: _200  and  _201
REMARK   83  A    between atoms: _203  and  _205
REMARK   84  A    between atoms: _205  and  _206
REMARK   85  A    between atoms: _209  and  _211
REMARK   86  A    between atoms: _211  and  _212
REMARK   87  A    between atoms: _211  and  _214
REMARK   88  A    between atoms: _214  and  _215
REMARK   89  A    between atoms: _218  and  _220
REMARK   90  A    between atoms: _220  and  _221
REMARK   91  A    between atoms: _220  and  _223
REMARK   92  A    between atoms: _223  and  _224
REMARK   93  A    between atoms: _227  and  _229
REMARK   94  A    between atoms: _229  and  _230
REMARK   95  A    between atoms: _229  and  _232
REMARK   96  A    between atoms: _232  and  _233
REMARK   97  A    between atoms: _236  and  _238
REMARK   98  A    between atoms: _238  and  _239
REMARK   99  A    between atoms: _242  and  _244
REMARK  100  A    between atoms: _244  and  _245
REMARK  101  A    between atoms: _244  and  _247
REMARK  102  A    between atoms: _247  and  _248
REMARK  103  A    between atoms: _253  and  _254
REMARK  104  A    between atoms: _256  and  _258
REMARK  105  A    between atoms: _258  and  _259
REMARK  106  A    between atoms: _258  and  _261
REMARK  107  A    between atoms: _261  and  _262
REMARK  108  A    between atoms: _267  and  _269
REMARK  109  A    between atoms: _269  and  _270
REMARK  110  A    between atoms: _269  and  _272
REMARK  111  A    between atoms: _272  and  _273
REMARK  112  A    between atoms: _276  and  _278
REMARK  113  A    between atoms: _278  and  _279
REMARK  114  A    between atoms: _278  and  _281
REMARK  115  A    between atoms: _281  and  _282
REMARK  116  A    between atoms: _288  and  _290
REMARK  117  A    between atoms: _290  and  _291
REMARK  118  A    between atoms: _293  and  _295
REMARK  119  A    between atoms: _295  and  _296
REMARK  120  A    between atoms: _295  and  _298
REMARK  121  A    between atoms: _298  and  _299
REMARK  122  A    between atoms: _299  and  _300
REMARK  123  A    between atoms: _300  and  _301
REMARK  124  A    between atoms: _301  and  _302
REMARK  125  A    between atoms: _306  and  _308
REMARK  126  A    between atoms: _308  and  _309
REMARK  127  A    between atoms: _308  and  _311
REMARK  128  A    between atoms: _311  and  _312
REMARK  129  A    between atoms: _317  and  _318
REMARK  130  A    between atoms: _320  and  _322
REMARK  131  A    between atoms: _322  and  _323
REMARK  132  A    between atoms: _322  and  _325
REMARK  133  A    between atoms: _325  and  _326
REMARK  134  A    between atoms: _329  and  _331
REMARK  135  A    between atoms: _331  and  _332
REMARK  136  A    between atoms: _331  and  _334
REMARK  137  A    between atoms: _334  and  _335
REMARK  138  A    between atoms: _340  and  _341
REMARK  139  A    between atoms: _343  and  _345
REMARK  140  A    between atoms: _345  and  _346
REMARK  141  A    between atoms: _345  and  _348
REMARK  142  A    between atoms: _348  and  _349
REMARK  143  A    between atoms: _354  and  _355
REMARK  144  A    between atoms: _357  and  _359
REMARK  145  A    between atoms: _359  and  _360
REMARK  146  A    between atoms: _359  and  _362
REMARK  147  A    between atoms: _362  and  _363
REMARK  148  A    between atoms: _368  and  _369
REMARK  149  A    between atoms: _371  and  _373
REMARK  150  A    between atoms: _373  and  _374
REMARK  151  A    between atoms: _373  and  _376
REMARK  152  A    between atoms: _376  and  _377
REMARK  153  A    between atoms: _377  and  _378
REMARK  154  A    between atoms: _381  and  _383
REMARK  155  A    between atoms: _383  and  _384
REMARK  156  A    between atoms: _383  and  _386
REMARK  157  A    between atoms: _386  and  _387
REMARK  158  A    between atoms: _389  and  _391
REMARK  159  A    between atoms: _391  and  _392
REMARK  160  A    between atoms: _391  and  _394
REMARK  161  A    between atoms: _394  and  _395
REMARK  162  A    between atoms: _395  and  _505
REMARK  163  A    between atoms: _396  and  _398
REMARK  164  A    between atoms: _398  and  _399
REMARK  165  A    between atoms: _398  and  _401
REMARK  166  A    between atoms: _401  and  _402
REMARK  167  A    between atoms: _402  and  _403
REMARK  168  A    between atoms: _408  and  _410
REMARK  169  A    between atoms: _410  and  _411
REMARK  170  A    between atoms: _413  and  _415
REMARK  171  A    between atoms: _415  and  _416
REMARK  172  A    between atoms: _415  and  _418
REMARK  173  A    between atoms: _418  and  _419
REMARK  174  A    between atoms: _422  and  _424
REMARK  175  A    between atoms: _424  and  _425
REMARK  176  A    between atoms: _424  and  _427
REMARK  177  A    between atoms: _427  and  _428
REMARK  178  A    between atoms: _430  and  _432
REMARK  179  A    between atoms: _432  and  _433
REMARK  180  A    between atoms: _435  and  _437
REMARK  181  A    between atoms: _437  and  _438
REMARK  182  A    between atoms: _440  and  _442
REMARK  183  A    between atoms: _442  and  _443
REMARK  184  A    between atoms: _442  and  _445
REMARK  185  A    between atoms: _448  and  _450
REMARK  186  A    between atoms: _450  and  _451
REMARK  187  A    between atoms: _450  and  _453
REMARK  188  A    between atoms: _453  and  _454
REMARK  189  A    between atoms: _456  and  _458
REMARK  190  A    between atoms: _458  and  _459
REMARK  191  A    between atoms: _458  and  _461
REMARK  192  A    between atoms: _461  and  _462
REMARK  193  A    between atoms: _472  and  _474
REMARK  194  A    between atoms: _474  and  _475
REMARK  195  A    between atoms: _477  and  _479
REMARK  196  A    between atoms: _479  and  _480
REMARK  197  A    between atoms: _479  and  _482
REMARK  198  A    between atoms: _482  and  _483
REMARK  199  A    between atoms: _483  and  _484
REMARK  200  A    between atoms: _484  and  _485
REMARK  201  A    between atoms: _494  and  _496
REMARK  202  A    between atoms: _496  and  _497
REMARK  203  A    between atoms: _499  and  _501
REMARK  204  A    between atoms: _501  and  _502
REMARK  205  A    between atoms: _501  and  _504
REMARK  206  A    between atoms: _504  and  _505
REMARK  207  A    between atoms: _506  and  _508
REMARK  208  A    between atoms: _508  and  _509
REMARK  209  A    between atoms: _508  and  _511
REMARK  210  A    between atoms: _511  and  _512
REMARK  211  A    between atoms: _515  and  _517
REMARK  212  A    between atoms: _517  and  _518
REMARK  213  A    between atoms: _517  and  _520
REMARK  214  A    between atoms: _520  and  _521
REMARK  215  A    between atoms: _521  and  _522
REMARK  216  A    between atoms: _522  and  _523
REMARK  217  A    between atoms: _523  and  _524
REMARK  218  A    between atoms: _529  and  _530
REMARK  219  A    between atoms: _535  and  _537
REMARK  220  A    between atoms: _537  and  _538
REMARK  221  A    between atoms: _537  and  _540
REMARK                            x       y       z     vdW  Elec       q    Type
REMARK                         _______ _______ _______ _____ _____    ______ ____
ROOT
ATOM      1  O   HOH     1     -11.256 -23.228 -25.195  0.00  0.00    +0.000 OA
ENDROOT
TORSDOF 0
REMARK  Name = ../refined-set-2016/4zhm/4zhm_pocket.pdb
REMARK  221 active torsions:
REMARK  status: ('A' for Active; 'I' for Inactive)
REMARK    1  A    between atoms: _1  and  _3
REMARK    2  A    between atoms: _3  and  _4
REMARK    3  A    between atoms: _3  and  _6
REMARK    4  A    between atoms: _6  and  _7
REMARK    5  A    between atoms: _10  and  _12
REMARK    6  A    between atoms: _12  and  _13
REMARK    7  A    between atoms: _12  and  _15
REMARK    8  A    between atoms: _15  and  _16
REMARK    9  A    between atoms: _16  and  _17
REMARK   10  A    between atoms: _17  and  _18
REMARK   11  A    between atoms: _27  and  _29
REMARK   12  A    between atoms: _29  and  _30
REMARK   13  A    between atoms: _29  and  _32
REMARK   14  A    between atoms: _32  and  _33
REMARK   15  A    between atoms: _38  and  _40
REMARK   16  A    between atoms: _40  and  _41
REMARK   17  A    between atoms: _40  and  _43
REMARK   18  A    between atoms: _43  and  _44
REMARK   19  A    between atoms: _47  and  _49
REMARK   20  A    between atoms: _49  and  _50
REMARK   21  A    between atoms: _49  and  _52
REMARK   22  A    between atoms: _52  and  _53
REMARK   23  A    between atoms: _58  and  _59
REMARK   24  A    between atoms: _61  and  _63
REMARK   25  A    between atoms: _63  and  _64
REMARK   26  A    between atoms: _63  and  _66
REMARK   27  A    between atoms: _69  and  _71
REMARK   28  A    between atoms: _71  and  _72
REMARK   29  A    between atoms: _71  and  _74
REMARK   30  A    between atoms: _74  and  _75
REMARK   31  A    between atoms: _75  and  _113
REMARK   32  A    between atoms: _76  and  _78
REMARK   33  A    between atoms: _78  and  _79
REMARK   34  A    between atoms: _81  and  _83
REMARK   35  A    between atoms: _83  and  _84
REMARK   36  A    between atoms: _87  and  _89
REMARK   37  A    between atoms: _89  and  _90
REMARK   38  A    between atoms: _89  and  _92
REMARK   39  A    between atoms: _92  and  _93
REMARK   40  A    between atoms: _96  and  _98
REMARK   41  A    between atoms: _98  and  _99
REMARK   42  A    between atoms: _98  and  _101
REMARK   43  A    between atoms: _101  and  _102
REMARK   44  A    between atoms: _107  and  _109
REMARK   45  A    between atoms: _109  and  _110
REMARK   46  A    between atoms: _109  and  _112
REMARK   47  A    between atoms: _112  and  _113
REMARK   48  A    between atoms: _114  and  _116
REMARK   49  A    between atoms: _116  and  _117
REMARK   50  A    between atoms: _116  and  _119
REMARK   51  A    between atoms: _119  and  _120
REMARK   52  A    between atoms: _126  and  _128
REMARK   53  A    between atoms: _128  and  _129
REMARK   54  A    between atoms: _128  and  _131
REMARK   55  A    between atoms: _131  and  _132
REMARK   56  A    between atoms: _135  and  _137
REMARK   57  A    between atoms: _137  and  _138
REMARK   58  A    between atoms: _137  and  _140
REMARK   59  A    between atoms: _140  and  _141
REMARK   60  A    between atoms: _144  and  _146
REMARK   61  A    between atoms: _146  and  _147
REMARK   62  A    between atoms: _146  and  _149
REMARK   63  A    between atoms: _149  and  _150
REMARK   64  A    between atoms: _155  and  _156
REMARK   65  A    between atoms: _158  and  _160
REMARK   66  A    between atoms: _160  and  _161
REMARK   67  A    between atoms: _160  and  _163
REMARK   68  A    between atoms: _163  and  _164
REMARK   69  A    between atoms: _169  and  _170
REMARK   70  A    between atoms: _172  and  _174
REMARK   71  A    between atoms: _174  and  _175
REMARK   72  A    between atoms: _174  and  _177
REMARK   73  A    between atoms: _177  and  _178
REMARK   74  A    between atoms: _181  and  _183
REMARK   75  A    between atoms: _183  and  _184
REMARK   76  A    between atoms: _183  and  _186
REMARK   77  A    between atoms: _186  and  _187
REMARK   78  A    between atoms: _192  and  _193
REMARK   79  A    between atoms: _195  and  _197
REMARK   80  A    between atoms: _197  and  _198
REMARK   81  A    between atoms: _197  and  _200
REMARK   82  A    between atoms: _200  and  _201
REMARK   83  A    between atoms: _203  and  _205
REMARK   84  A    between atoms: _205  and  _206
REMARK   85  A    between atoms: _209  and  _211
REMARK   86  A    between atoms: _211  and  _212
REMARK   87  A    between atoms: _211  and  _214
REMARK   88  A    between atoms: _214  and  _215
REMARK   89  A    between atoms: _218  and  _220
REMARK   90  A    between atoms: _220  and  _221
REMARK   91  A    between atoms: _220  and  _223
REMARK   92  A    between atoms: _223  and  _224
REMARK   93  A    between atoms: _227  and  _229
REMARK   94  A    between atoms: _229  and  _230
REMARK   95  A    between atoms: _229  and  _232
REMARK   96  A    between atoms: _232  and  _233
REMARK   97  A    between atoms: _236  and  _238
REMARK   98  A    between atoms: _238  and  _239
REMARK   99  A    between atoms: _242  and  _244
REMARK  100  A    between atoms: _244  and  _245
REMARK  101  A    between atoms: _244  and  _247
REMARK  102  A    between atoms: _247  and  _248
REMARK  103  A    between atoms: _253  and  _254
REMARK  104  A    between atoms: _256  and  _258
REMARK  105  A    between atoms: _258  and  _259
REMARK  106  A    between atoms: _258  and  _261
REMARK  107  A    between atoms: _261  and  _262
REMARK  108  A    between atoms: _267  and  _269
REMARK  109  A    between atoms: _269  and  _270
REMARK  110  A    between atoms: _269  and  _272
REMARK  111  A    between atoms: _272  and  _273
REMARK  112  A    between atoms: _276  and  _278
REMARK  113  A    between atoms: _278  and  _279
REMARK  114  A    between atoms: _278  and  _281
REMARK  115  A    between atoms: _281  and  _282
REMARK  116  A    between atoms: _288  and  _290
REMARK  117  A    between atoms: _290  and  _291
REMARK  118  A    between atoms: _293  and  _295
REMARK  119  A    between atoms: _295  and  _296
REMARK  120  A    between atoms: _295  and  _298
REMARK  121  A    between atoms: _298  and  _299
REMARK  122  A    between atoms: _299  and  _300
REMARK  123  A    between atoms: _300  and  _301
REMARK  124  A    between atoms: _301  and  _302
REMARK  125  A    between atoms: _306  and  _308
REMARK  126  A    between atoms: _308  and  _309
REMARK  127  A    between atoms: _308  and  _311
REMARK  128  A    between atoms: _311  and  _312
REMARK  129  A    between atoms: _317  and  _318
REMARK  130  A    between atoms: _320  and  _322
REMARK  131  A    between atoms: _322  and  _323
REMARK  132  A    between atoms: _322  and  _325
REMARK  133  A    between atoms: _325  and  _326
REMARK  134  A    between atoms: _329  and  _331
REMARK  135  A    between atoms: _331  and  _332
REMARK  136  A    between atoms: _331  and  _334
REMARK  137  A    between atoms: _334  and  _335
REMARK  138  A    between atoms: _340  and  _341
REMARK  139  A    between atoms: _343  and  _345
REMARK  140  A    between atoms: _345  and  _346
REMARK  141  A    between atoms: _345  and  _348
REMARK  142  A    between atoms: _348  and  _349
REMARK  143  A    between atoms: _354  and  _355
REMARK  144  A    between atoms: _357  and  _359
REMARK  145  A    between atoms: _359  and  _360
REMARK  146  A    between atoms: _359  and  _362
REMARK  147  A    between atoms: _362  and  _363
REMARK  148  A    between atoms: _368  and  _369
REMARK  149  A    between atoms: _371  and  _373
REMARK  150  A    between atoms: _373  and  _374
REMARK  151  A    between atoms: _373  and  _376
REMARK  152  A    between atoms: _376  and  _377
REMARK  153  A    between atoms: _377  and  _378
REMARK  154  A    between atoms: _381  and  _383
REMARK  155  A    between atoms: _383  and  _384
REMARK  156  A    between atoms: _383  and  _386
REMARK  157  A    between atoms: _386  and  _387
REMARK  158  A    between atoms: _389  and  _391
REMARK  159  A    between atoms: _391  and  _392
REMARK  160  A    between atoms: _391  and  _394
REMARK  161  A    between atoms: _394  and  _395
REMARK  162  A    between atoms: _395  and  _505
REMARK  163  A    between atoms: _396  and  _398
REMARK  164  A    between atoms: _398  and  _399
REMARK  165  A    between atoms: _398  and  _401
REMARK  166  A    between atoms: _401  and  _402
REMARK  167  A    between atoms: _402  and  _403
REMARK  168  A    between atoms: _408  and  _410
REMARK  169  A    between atoms: _410  and  _411
REMARK  170  A    between atoms: _413  and  _415
REMARK  171  A    between atoms: _415  and  _416
REMARK  172  A    between atoms: _415  and  _418
REMARK  173  A    between atoms: _418  and  _419
REMARK  174  A    between atoms: _422  and  _424
REMARK  175  A    between atoms: _424  and  _425
REMARK  176  A    between atoms: _424  and  _427
REMARK  177  A    between atoms: _427  and  _428
REMARK  178  A    between atoms: _430  and  _432
REMARK  179  A    between atoms: _432  and  _433
REMARK  180  A    between atoms: _435  and  _437
REMARK  181  A    between atoms: _437  and  _438
REMARK  182  A    between atoms: _440  and  _442
REMARK  183  A    between atoms: _442  and  _443
REMARK  184  A    between atoms: _442  and  _445
REMARK  185  A    between atoms: _448  and  _450
REMARK  186  A    between atoms: _450  and  _451
REMARK  187  A    between atoms: _450  and  _453
REMARK  188  A    between atoms: _453  and  _454
REMARK  189  A    between atoms: _456  and  _458
REMARK  190  A    between atoms: _458  and  _459
REMARK  191  A    between atoms: _458  and  _461
REMARK  192  A    between atoms: _461  and  _462
REMARK  193  A    between atoms: _472  and  _474
REMARK  194  A    between atoms: _474  and  _475
REMARK  195  A    between atoms: _477  and  _479
REMARK  196  A    between atoms: _479  and  _480
REMARK  197  A    between atoms: _479  and  _482
REMARK  198  A    between atoms: _482  and  _483
REMARK  199  A    between atoms: _483  and  _484
REMARK  200  A    between atoms: _484  and  _485
REMARK  201  A    between atoms: _494  and  _496
REMARK  202  A    between atoms: _496  and  _497
REMARK  203  A    between atoms: _499  and  _501
REMARK  204  A    between atoms: _501  and  _502
REMARK  205  A    between atoms: _501  and  _504
REMARK  206  A    between atoms: _504  and  _505
REMARK  207  A    between atoms: _506  and  _508
REMARK  208  A    between atoms: _508  and  _509
REMARK  209  A    between atoms: _508  and  _511
REMARK  210  A    between atoms: _511  and  _512
REMARK  211  A    between atoms: _515  and  _517
REMARK  212  A    between atoms: _517  and  _518
REMARK  213  A    between atoms: _517  and  _520
REMARK  214  A    between atoms: _520  and  _521
REMARK  215  A    between atoms: _521  and  _522
REMARK  216  A    between atoms: _522  and  _523
REMARK  217  A    between atoms: _523  and  _524
REMARK  218  A    between atoms: _529  and  _530
REMARK  219  A    between atoms: _535  and  _537
REMARK  220  A    between atoms: _537  and  _538
REMARK  221  A    between atoms: _537  and  _540
REMARK                            x       y       z     vdW  Elec       q    Type
REMARK                         _______ _______ _______ _____ _____    ______ ____
ROOT
ATOM      1  O   HOH     1       5.812 -22.234 -19.429  0.00  0.00    +0.000 OA
ENDROOT
TORSDOF 0
REMARK  Name = ../refined-set-2016/4zhm/4zhm_pocket.pdb
REMARK  221 active torsions:
REMARK  status: ('A' for Active; 'I' for Inactive)
REMARK    1  A    between atoms: _1  and  _3
REMARK    2  A    between atoms: _3  and  _4
REMARK    3  A    between atoms: _3  and  _6
REMARK    4  A    between atoms: _6  and  _7
REMARK    5  A    between atoms: _10  and  _12
REMARK    6  A    between atoms: _12  and  _13
REMARK    7  A    between atoms: _12  and  _15
REMARK    8  A    between atoms: _15  and  _16
REMARK    9  A    between atoms: _16  and  _17
REMARK   10  A    between atoms: _17  and  _18
REMARK   11  A    between atoms: _27  and  _29
REMARK   12  A    between atoms: _29  and  _30
REMARK   13  A    between atoms: _29  and  _32
REMARK   14  A    between atoms: _32  and  _33
REMARK   15  A    between atoms: _38  and  _40
REMARK   16  A    between atoms: _40  and  _41
REMARK   17  A    between atoms: _40  and  _43
REMARK   18  A    between atoms: _43  and  _44
REMARK   19  A    between atoms: _47  and  _49
REMARK   20  A    between atoms: _49  and  _50
REMARK   21  A    between atoms: _49  and  _52
REMARK   22  A    between atoms: _52  and  _53
REMARK   23  A    between atoms: _58  and  _59
REMARK   24  A    between atoms: _61  and  _63
REMARK   25  A    between atoms: _63  and  _64
REMARK   26  A    between atoms: _63  and  _66
REMARK   27  A    between atoms: _69  and  _71
REMARK   28  A    between atoms: _71  and  _72
REMARK   29  A    between atoms: _71  and  _74
REMARK   30  A    between atoms: _74  and  _75
REMARK   31  A    between atoms: _75  and  _113
REMARK   32  A    between atoms: _76  and  _78
REMARK   33  A    between atoms: _78  and  _79
REMARK   34  A    between atoms: _81  and  _83
REMARK   35  A    between atoms: _83  and  _84
REMARK   36  A    between atoms: _87  and  _89
REMARK   37  A    between atoms: _89  and  _90
REMARK   38  A    between atoms: _89  and  _92
REMARK   39  A    between atoms: _92  and  _93
REMARK   40  A    between atoms: _96  and  _98
REMARK   41  A    between atoms: _98  and  _99
REMARK   42  A    between atoms: _98  and  _101
REMARK   43  A    between atoms: _101  and  _102
REMARK   44  A    between atoms: _107  and  _109
REMARK   45  A    between atoms: _109  and  _110
REMARK   46  A    between atoms: _109  and  _112
REMARK   47  A    between atoms: _112  and  _113
REMARK   48  A    between atoms: _114  and  _116
REMARK   49  A    between atoms: _116  and  _117
REMARK   50  A    between atoms: _116  and  _119
REMARK   51  A    between atoms: _119  and  _120
REMARK   52  A    between atoms: _126  and  _128
REMARK   53  A    between atoms: _128  and  _129
REMARK   54  A    between atoms: _128  and  _131
REMARK   55  A    between atoms: _131  and  _132
REMARK   56  A    between atoms: _135  and  _137
REMARK   57  A    between atoms: _137  and  _138
REMARK   58  A    between atoms: _137  and  _140
REMARK   59  A    between atoms: _140  and  _141
REMARK   60  A    between atoms: _144  and  _146
REMARK   61  A    between atoms: _146  and  _147
REMARK   62  A    between atoms: _146  and  _149
REMARK   63  A    between atoms: _149  and  _150
REMARK   64  A    between atoms: _155  and  _156
REMARK   65  A    between atoms: _158  and  _160
REMARK   66  A    between atoms: _160  and  _161
REMARK   67  A    between atoms: _160  and  _163
REMARK   68  A    between atoms: _163  and  _164
REMARK   69  A    between atoms: _169  and  _170
REMARK   70  A    between atoms: _172  and  _174
REMARK   71  A    between atoms: _174  and  _175
REMARK   72  A    between atoms: _174  and  _177
REMARK   73  A    between atoms: _177  and  _178
REMARK   74  A    between atoms: _181  and  _183
REMARK   75  A    between atoms: _183  and  _184
REMARK   76  A    between atoms: _183  and  _186
REMARK   77  A    between atoms: _186  and  _187
REMARK   78  A    between atoms: _192  and  _193
REMARK   79  A    between atoms: _195  and  _197
REMARK   80  A    between atoms: _197  and  _198
REMARK   81  A    between atoms: _197  and  _200
REMARK   82  A    between atoms: _200  and  _201
REMARK   83  A    between atoms: _203  and  _205
REMARK   84  A    between atoms: _205  and  _206
REMARK   85  A    between atoms: _209  and  _211
REMARK   86  A    between atoms: _211  and  _212
REMARK   87  A    between atoms: _211  and  _214
REMARK   88  A    between atoms: _214  and  _215
REMARK   89  A    between atoms: _218  and  _220
REMARK   90  A    between atoms: _220  and  _221
REMARK   91  A    between atoms: _220  and  _223
REMARK   92  A    between atoms: _223  and  _224
REMARK   93  A    between atoms: _227  and  _229
REMARK   94  A    between atoms: _229  and  _230
REMARK   95  A    between atoms: _229  and  _232
REMARK   96  A    between atoms: _232  and  _233
REMARK   97  A    between atoms: _236  and  _238
REMARK   98  A    between atoms: _238  and  _239
REMARK   99  A    between atoms: _242  and  _244
REMARK  100  A    between atoms: _244  and  _245
REMARK  101  A    between atoms: _244  and  _247
REMARK  102  A    between atoms: _247  and  _248
REMARK  103  A    between atoms: _253  and  _254
REMARK  104  A    between atoms: _256  and  _258
REMARK  105  A    between atoms: _258  and  _259
REMARK  106  A    between atoms: _258  and  _261
REMARK  107  A    between atoms: _261  and  _262
REMARK  108  A    between atoms: _267  and  _269
REMARK  109  A    between atoms: _269  and  _270
REMARK  110  A    between atoms: _269  and  _272
REMARK  111  A    between atoms: _272  and  _273
REMARK  112  A    between atoms: _276  and  _278
REMARK  113  A    between atoms: _278  and  _279
REMARK  114  A    between atoms: _278  and  _281
REMARK  115  A    between atoms: _281  and  _282
REMARK  116  A    between atoms: _288  and  _290
REMARK  117  A    between atoms: _290  and  _291
REMARK  118  A    between atoms: _293  and  _295
REMARK  119  A    between atoms: _295  and  _296
REMARK  120  A    between atoms: _295  and  _298
REMARK  121  A    between atoms: _298  and  _299
REMARK  122  A    between atoms: _299  and  _300
REMARK  123  A    between atoms: _300  and  _301
REMARK  124  A    between atoms: _301  and  _302
REMARK  125  A    between atoms: _306  and  _308
REMARK  126  A    between atoms: _308  and  _309
REMARK  127  A    between atoms: _308  and  _311
REMARK  128  A    between atoms: _311  and  _312
REMARK  129  A    between atoms: _317  and  _318
REMARK  130  A    between atoms: _320  and  _322
REMARK  131  A    between atoms: _322  and  _323
REMARK  132  A    between atoms: _322  and  _325
REMARK  133  A    between atoms: _325  and  _326
REMARK  134  A    between atoms: _329  and  _331
REMARK  135  A    between atoms: _331  and  _332
REMARK  136  A    between atoms: _331  and  _334
REMARK  137  A    between atoms: _334  and  _335
REMARK  138  A    between atoms: _340  and  _341
REMARK  139  A    between atoms: _343  and  _345
REMARK  140  A    between atoms: _345  and  _346
REMARK  141  A    between atoms: _345  and  _348
REMARK  142  A    between atoms: _348  and  _349
REMARK  143  A    between atoms: _354  and  _355
REMARK  144  A    between atoms: _357  and  _359
REMARK  145  A    between atoms: _359  and  _360
REMARK  146  A    between atoms: _359  and  _362
REMARK  147  A    between atoms: _362  and  _363
REMARK  148  A    between atoms: _368  and  _369
REMARK  149  A    between atoms: _371  and  _373
REMARK  150  A    between atoms: _373  and  _374
REMARK  151  A    between atoms: _373  and  _376
REMARK  152  A    between atoms: _376  and  _377
REMARK  153  A    between atoms: _377  and  _378
REMARK  154  A    between atoms: _381  and  _383
REMARK  155  A    between atoms: _383  and  _384
REMARK  156  A    between atoms: _383  and  _386
REMARK  157  A    between atoms: _386  and  _387
REMARK  158  A    between atoms: _389  and  _391
REMARK  159  A    between atoms: _391  and  _392
REMARK  160  A    between atoms: _391  and  _394
REMARK  161  A    between atoms: _394  and  _395
REMARK  162  A    between atoms: _395  and  _505
REMARK  163  A    between atoms: _396  and  _398
REMARK  164  A    between atoms: _398  and  _399
REMARK  165  A    between atoms: _398  and  _401
REMARK  166  A    between atoms: _401  and  _402
REMARK  167  A    between atoms: _402  and  _403
REMARK  168  A    between atoms: _408  and  _410
REMARK  169  A    between atoms: _410  and  _411
REMARK  170  A    between atoms: _413  and  _415
REMARK  171  A    between atoms: _415  and  _416
REMARK  172  A    between atoms: _415  and  _418
REMARK  173  A    between atoms: _418  and  _419
REMARK  174  A    between atoms: _422  and  _424
REMARK  175  A    between atoms: _424  and  _425
REMARK  176  A    between atoms: _424  and  _427
REMARK  177  A    between atoms: _427  and  _428
REMARK  178  A    between atoms: _430  and  _432
REMARK  179  A    between atoms: _432  and  _433
REMARK  180  A    between atoms: _435  and  _437
REMARK  181  A    between atoms: _437  and  _438
REMARK  182  A    between atoms: _440  and  _442
REMARK  183  A    between atoms: _442  and  _443
REMARK  184  A    between atoms: _442  and  _445
REMARK  185  A    between atoms: _448  and  _450
REMARK  186  A    between atoms: _450  and  _451
REMARK  187  A    between atoms: _450  and  _453
REMARK  188  A    between atoms: _453  and  _454
REMARK  189  A    between atoms: _456  and  _458
REMARK  190  A    between atoms: _458  and  _459
REMARK  191  A    between atoms: _458  and  _461
REMARK  192  A    between atoms: _461  and  _462
REMARK  193  A    between atoms: _472  and  _474
REMARK  194  A    between atoms: _474  and  _475
REMARK  195  A    between atoms: _477  and  _479
REMARK  196  A    between atoms: _479  and  _480
REMARK  197  A    between atoms: _479  and  _482
REMARK  198  A    between atoms: _482  and  _483
REMARK  199  A    between atoms: _483  and  _484
REMARK  200  A    between atoms: _484  and  _485
REMARK  201  A    between atoms: _494  and  _496
REMARK  202  A    between atoms: _496  and  _497
REMARK  203  A    between atoms: _499  and  _501
REMARK  204  A    between atoms: _501  and  _502
REMARK  205  A    between atoms: _501  and  _504
REMARK  206  A    between atoms: _504  and  _505
REMARK  207  A    between atoms: _506  and  _508
REMARK  208  A    between atoms: _508  and  _509
REMARK  209  A    between atoms: _508  and  _511
REMARK  210  A    between atoms: _511  and  _512
REMARK  211  A    between atoms: _515  and  _517
REMARK  212  A    between atoms: _517  and  _518
REMARK  213  A    between atoms: _517  and  _520
REMARK  214  A    between atoms: _520  and  _521
REMARK  215  A    between atoms: _521  and  _522
REMARK  216  A    between atoms: _522  and  _523
REMARK  217  A    between atoms: _523  and  _524
REMARK  218  A    between atoms: _529  and  _530
REMARK  219  A    between atoms: _535  and  _537
REMARK  220  A    between atoms: _537  and  _538
REMARK  221  A    between atoms: _537  and  _540
REMARK                            x       y       z     vdW  Elec       q    Type
REMARK                         _______ _______ _______ _____ _____    ______ ____
ROOT
ATOM      1  O   HOH     1       7.601 -24.372 -21.634  0.00  0.00    +0.000 OA
ENDROOT
TORSDOF 0
REMARK  Name = ../refined-set-2016/4zhm/4zhm_pocket.pdb
REMARK  221 active torsions:
REMARK  status: ('A' for Active; 'I' for Inactive)
REMARK    1  A    between atoms: _1  and  _3
REMARK    2  A    between atoms: _3  and  _4
REMARK    3  A    between atoms: _3  and  _6
REMARK    4  A    between atoms: _6  and  _7
REMARK    5  A    between atoms: _10  and  _12
REMARK    6  A    between atoms: _12  and  _13
REMARK    7  A    between atoms: _12  and  _15
REMARK    8  A    between atoms: _15  and  _16
REMARK    9  A    between atoms: _16  and  _17
REMARK   10  A    between atoms: _17  and  _18
REMARK   11  A    between atoms: _27  and  _29
REMARK   12  A    between atoms: _29  and  _30
REMARK   13  A    between atoms: _29  and  _32
REMARK   14  A    between atoms: _32  and  _33
REMARK   15  A    between atoms: _38  and  _40
REMARK   16  A    between atoms: _40  and  _41
REMARK   17  A    between atoms: _40  and  _43
REMARK   18  A    between atoms: _43  and  _44
REMARK   19  A    between atoms: _47  and  _49
REMARK   20  A    between atoms: _49  and  _50
REMARK   21  A    between atoms: _49  and  _52
REMARK   22  A    between atoms: _52  and  _53
REMARK   23  A    between atoms: _58  and  _59
REMARK   24  A    between atoms: _61  and  _63
REMARK   25  A    between atoms: _63  and  _64
REMARK   26  A    between atoms: _63  and  _66
REMARK   27  A    between atoms: _69  and  _71
REMARK   28  A    between atoms: _71  and  _72
REMARK   29  A    between atoms: _71  and  _74
REMARK   30  A    between atoms: _74  and  _75
REMARK   31  A    between atoms: _75  and  _113
REMARK   32  A    between atoms: _76  and  _78
REMARK   33  A    between atoms: _78  and  _79
REMARK   34  A    between atoms: _81  and  _83
REMARK   35  A    between atoms: _83  and  _84
REMARK   36  A    between atoms: _87  and  _89
REMARK   37  A    between atoms: _89  and  _90
REMARK   38  A    between atoms: _89  and  _92
REMARK   39  A    between atoms: _92  and  _93
REMARK   40  A    between atoms: _96  and  _98
REMARK   41  A    between atoms: _98  and  _99
REMARK   42  A    between atoms: _98  and  _101
REMARK   43  A    between atoms: _101  and  _102
REMARK   44  A    between atoms: _107  and  _109
REMARK   45  A    between atoms: _109  and  _110
REMARK   46  A    between atoms: _109  and  _112
REMARK   47  A    between atoms: _112  and  _113
REMARK   48  A    between atoms: _114  and  _116
REMARK   49  A    between atoms: _116  and  _117
REMARK   50  A    between atoms: _116  and  _119
REMARK   51  A    between atoms: _119  and  _120
REMARK   52  A    between atoms: _126  and  _128
REMARK   53  A    between atoms: _128  and  _129
REMARK   54  A    between atoms: _128  and  _131
REMARK   55  A    between atoms: _131  and  _132
REMARK   56  A    between atoms: _135  and  _137
REMARK   57  A    between atoms: _137  and  _138
REMARK   58  A    between atoms: _137  and  _140
REMARK   59  A    between atoms: _140  and  _141
REMARK   60  A    between atoms: _144  and  _146
REMARK   61  A    between atoms: _146  and  _147
REMARK   62  A    between atoms: _146  and  _149
REMARK   63  A    between atoms: _149  and  _150
REMARK   64  A    between atoms: _155  and  _156
REMARK   65  A    between atoms: _158  and  _160
REMARK   66  A    between atoms: _160  and  _161
REMARK   67  A    between atoms: _160  and  _163
REMARK   68  A    between atoms: _163  and  _164
REMARK   69  A    between atoms: _169  and  _170
REMARK   70  A    between atoms: _172  and  _174
REMARK   71  A    between atoms: _174  and  _175
REMARK   72  A    between atoms: _174  and  _177
REMARK   73  A    between atoms: _177  and  _178
REMARK   74  A    between atoms: _181  and  _183
REMARK   75  A    between atoms: _183  and  _184
REMARK   76  A    between atoms: _183  and  _186
REMARK   77  A    between atoms: _186  and  _187
REMARK   78  A    between atoms: _192  and  _193
REMARK   79  A    between atoms: _195  and  _197
REMARK   80  A    between atoms: _197  and  _198
REMARK   81  A    between atoms: _197  and  _200
REMARK   82  A    between atoms: _200  and  _201
REMARK   83  A    between atoms: _203  and  _205
REMARK   84  A    between atoms: _205  and  _206
REMARK   85  A    between atoms: _209  and  _211
REMARK   86  A    between atoms: _211  and  _212
REMARK   87  A    between atoms: _211  and  _214
REMARK   88  A    between atoms: _214  and  _215
REMARK   89  A    between atoms: _218  and  _220
REMARK   90  A    between atoms: _220  and  _221
REMARK   91  A    between atoms: _220  and  _223
REMARK   92  A    between atoms: _223  and  _224
REMARK   93  A    between atoms: _227  and  _229
REMARK   94  A    between atoms: _229  and  _230
REMARK   95  A    between atoms: _229  and  _232
REMARK   96  A    between atoms: _232  and  _233
REMARK   97  A    between atoms: _236  and  _238
REMARK   98  A    between atoms: _238  and  _239
REMARK   99  A    between atoms: _242  and  _244
REMARK  100  A    between atoms: _244  and  _245
REMARK  101  A    between atoms: _244  and  _247
REMARK  102  A    between atoms: _247  and  _248
REMARK  103  A    between atoms: _253  and  _254
REMARK  104  A    between atoms: _256  and  _258
REMARK  105  A    between atoms: _258  and  _259
REMARK  106  A    between atoms: _258  and  _261
REMARK  107  A    between atoms: _261  and  _262
REMARK  108  A    between atoms: _267  and  _269
REMARK  109  A    between atoms: _269  and  _270
REMARK  110  A    between atoms: _269  and  _272
REMARK  111  A    between atoms: _272  and  _273
REMARK  112  A    between atoms: _276  and  _278
REMARK  113  A    between atoms: _278  and  _279
REMARK  114  A    between atoms: _278  and  _281
REMARK  115  A    between atoms: _281  and  _282
REMARK  116  A    between atoms: _288  and  _290
REMARK  117  A    between atoms: _290  and  _291
REMARK  118  A    between atoms: _293  and  _295
REMARK  119  A    between atoms: _295  and  _296
REMARK  120  A    between atoms: _295  and  _298
REMARK  121  A    between atoms: _298  and  _299
REMARK  122  A    between atoms: _299  and  _300
REMARK  123  A    between atoms: _300  and  _301
REMARK  124  A    between atoms: _301  and  _302
REMARK  125  A    between atoms: _306  and  _308
REMARK  126  A    between atoms: _308  and  _309
REMARK  127  A    between atoms: _308  and  _311
REMARK  128  A    between atoms: _311  and  _312
REMARK  129  A    between atoms: _317  and  _318
REMARK  130  A    between atoms: _320  and  _322
REMARK  131  A    between atoms: _322  and  _323
REMARK  132  A    between atoms: _322  and  _325
REMARK  133  A    between atoms: _325  and  _326
REMARK  134  A    between atoms: _329  and  _331
REMARK  135  A    between atoms: _331  and  _332
REMARK  136  A    between atoms: _331  and  _334
REMARK  137  A    between atoms: _334  and  _335
REMARK  138  A    between atoms: _340  and  _341
REMARK  139  A    between atoms: _343  and  _345
REMARK  140  A    between atoms: _345  and  _346
REMARK  141  A    between atoms: _345  and  _348
REMARK  142  A    between atoms: _348  and  _349
REMARK  143  A    between atoms: _354  and  _355
REMARK  144  A    between atoms: _357  and  _359
REMARK  145  A    between atoms: _359  and  _360
REMARK  146  A    between atoms: _359  and  _362
REMARK  147  A    between atoms: _362  and  _363
REMARK  148  A    between atoms: _368  and  _369
REMARK  149  A    between atoms: _371  and  _373
REMARK  150  A    between atoms: _373  and  _374
REMARK  151  A    between atoms: _373  and  _376
REMARK  152  A    between atoms: _376  and  _377
REMARK  153  A    between atoms: _377  and  _378
REMARK  154  A    between atoms: _381  and  _383
REMARK  155  A    between atoms: _383  and  _384
REMARK  156  A    between atoms: _383  and  _386
REMARK  157  A    between atoms: _386  and  _387
REMARK  158  A    between atoms: _389  and  _391
REMARK  159  A    between atoms: _391  and  _392
REMARK  160  A    between atoms: _391  and  _394
REMARK  161  A    between atoms: _394  and  _395
REMARK  162  A    between atoms: _395  and  _505
REMARK  163  A    between atoms: _396  and  _398
REMARK  164  A    between atoms: _398  and  _399
REMARK  165  A    between atoms: _398  and  _401
REMARK  166  A    between atoms: _401  and  _402
REMARK  167  A    between atoms: _402  and  _403
REMARK  168  A    between atoms: _408  and  _410
REMARK  169  A    between atoms: _410  and  _411
REMARK  170  A    between atoms: _413  and  _415
REMARK  171  A    between atoms: _415  and  _416
REMARK  172  A    between atoms: _415  and  _418
REMARK  173  A    between atoms: _418  and  _419
REMARK  174  A    between atoms: _422  and  _424
REMARK  175  A    between atoms: _424  and  _425
REMARK  176  A    between atoms: _424  and  _427
REMARK  177  A    between atoms: _427  and  _428
REMARK  178  A    between atoms: _430  and  _432
REMARK  179  A    between atoms: _432  and  _433
REMARK  180  A    between atoms: _435  and  _437
REMARK  181  A    between atoms: _437  and  _438
REMARK  182  A    between atoms: _440  and  _442
REMARK  183  A    between atoms: _442  and  _443
REMARK  184  A    between atoms: _442  and  _445
REMARK  185  A    between atoms: _448  and  _450
REMARK  186  A    between atoms: _450  and  _451
REMARK  187  A    between atoms: _450  and  _453
REMARK  188  A    between atoms: _453  and  _454
REMARK  189  A    between atoms: _456  and  _458
REMARK  190  A    between atoms: _458  and  _459
REMARK  191  A    between atoms: _458  and  _461
REMARK  192  A    between atoms: _461  and  _462
REMARK  193  A    between atoms: _472  and  _474
REMARK  194  A    between atoms: _474  and  _475
REMARK  195  A    between atoms: _477  and  _479
REMARK  196  A    between atoms: _479  and  _480
REMARK  197  A    between atoms: _479  and  _482
REMARK  198  A    between atoms: _482  and  _483
REMARK  199  A    between atoms: _483  and  _484
REMARK  200  A    between atoms: _484  and  _485
REMARK  201  A    between atoms: _494  and  _496
REMARK  202  A    between atoms: _496  and  _497
REMARK  203  A    between atoms: _499  and  _501
REMARK  204  A    between atoms: _501  and  _502
REMARK  205  A    between atoms: _501  and  _504
REMARK  206  A    between atoms: _504  and  _505
REMARK  207  A    between atoms: _506  and  _508
REMARK  208  A    between atoms: _508  and  _509
REMARK  209  A    between atoms: _508  and  _511
REMARK  210  A    between atoms: _511  and  _512
REMARK  211  A    between atoms: _515  and  _517
REMARK  212  A    between atoms: _517  and  _518
REMARK  213  A    between atoms: _517  and  _520
REMARK  214  A    between atoms: _520  and  _521
REMARK  215  A    between atoms: _521  and  _522
REMARK  216  A    between atoms: _522  and  _523
REMARK  217  A    between atoms: _523  and  _524
REMARK  218  A    between atoms: _529  and  _530
REMARK  219  A    between atoms: _535  and  _537
REMARK  220  A    between atoms: _537  and  _538
REMARK  221  A    between atoms: _537  and  _540
REMARK                            x       y       z     vdW  Elec       q    Type
REMARK                         _______ _______ _______ _____ _____    ______ ____
ROOT
ATOM      1  O   HOH     1      -2.152 -19.965 -20.428  0.00  0.00    +0.000 OA
ENDROOT
TORSDOF 0
REMARK  Name = ../refined-set-2016/4zhm/4zhm_pocket.pdb
REMARK  221 active torsions:
REMARK  status: ('A' for Active; 'I' for Inactive)
REMARK    1  A    between atoms: _1  and  _3
REMARK    2  A    between atoms: _3  and  _4
REMARK    3  A    between atoms: _3  and  _6
REMARK    4  A    between atoms: _6  and  _7
REMARK    5  A    between atoms: _10  and  _12
REMARK    6  A    between atoms: _12  and  _13
REMARK    7  A    between atoms: _12  and  _15
REMARK    8  A    between atoms: _15  and  _16
REMARK    9  A    between atoms: _16  and  _17
REMARK   10  A    between atoms: _17  and  _18
REMARK   11  A    between atoms: _27  and  _29
REMARK   12  A    between atoms: _29  and  _30
REMARK   13  A    between atoms: _29  and  _32
REMARK   14  A    between atoms: _32  and  _33
REMARK   15  A    between atoms: _38  and  _40
REMARK   16  A    between atoms: _40  and  _41
REMARK   17  A    between atoms: _40  and  _43
REMARK   18  A    between atoms: _43  and  _44
REMARK   19  A    between atoms: _47  and  _49
REMARK   20  A    between atoms: _49  and  _50
REMARK   21  A    between atoms: _49  and  _52
REMARK   22  A    between atoms: _52  and  _53
REMARK   23  A    between atoms: _58  and  _59
REMARK   24  A    between atoms: _61  and  _63
REMARK   25  A    between atoms: _63  and  _64
REMARK   26  A    between atoms: _63  and  _66
REMARK   27  A    between atoms: _69  and  _71
REMARK   28  A    between atoms: _71  and  _72
REMARK   29  A    between atoms: _71  and  _74
REMARK   30  A    between atoms: _74  and  _75
REMARK   31  A    between atoms: _75  and  _113
REMARK   32  A    between atoms: _76  and  _78
REMARK   33  A    between atoms: _78  and  _79
REMARK   34  A    between atoms: _81  and  _83
REMARK   35  A    between atoms: _83  and  _84
REMARK   36  A    between atoms: _87  and  _89
REMARK   37  A    between atoms: _89  and  _90
REMARK   38  A    between atoms: _89  and  _92
REMARK   39  A    between atoms: _92  and  _93
REMARK   40  A    between atoms: _96  and  _98
REMARK   41  A    between atoms: _98  and  _99
REMARK   42  A    between atoms: _98  and  _101
REMARK   43  A    between atoms: _101  and  _102
REMARK   44  A    between atoms: _107  and  _109
REMARK   45  A    between atoms: _109  and  _110
REMARK   46  A    between atoms: _109  and  _112
REMARK   47  A    between atoms: _112  and  _113
REMARK   48  A    between atoms: _114  and  _116
REMARK   49  A    between atoms: _116  and  _117
REMARK   50  A    between atoms: _116  and  _119
REMARK   51  A    between atoms: _119  and  _120
REMARK   52  A    between atoms: _126  and  _128
REMARK   53  A    between atoms: _128  and  _129
REMARK   54  A    between atoms: _128  and  _131
REMARK   55  A    between atoms: _131  and  _132
REMARK   56  A    between atoms: _135  and  _137
REMARK   57  A    between atoms: _137  and  _138
REMARK   58  A    between atoms: _137  and  _140
REMARK   59  A    between atoms: _140  and  _141
REMARK   60  A    between atoms: _144  and  _146
REMARK   61  A    between atoms: _146  and  _147
REMARK   62  A    between atoms: _146  and  _149
REMARK   63  A    between atoms: _149  and  _150
REMARK   64  A    between atoms: _155  and  _156
REMARK   65  A    between atoms: _158  and  _160
REMARK   66  A    between atoms: _160  and  _161
REMARK   67  A    between atoms: _160  and  _163
REMARK   68  A    between atoms: _163  and  _164
REMARK   69  A    between atoms: _169  and  _170
REMARK   70  A    between atoms: _172  and  _174
REMARK   71  A    between atoms: _174  and  _175
REMARK   72  A    between atoms: _174  and  _177
REMARK   73  A    between atoms: _177  and  _178
REMARK   74  A    between atoms: _181  and  _183
REMARK   75  A    between atoms: _183  and  _184
REMARK   76  A    between atoms: _183  and  _186
REMARK   77  A    between atoms: _186  and  _187
REMARK   78  A    between atoms: _192  and  _193
REMARK   79  A    between atoms: _195  and  _197
REMARK   80  A    between atoms: _197  and  _198
REMARK   81  A    between atoms: _197  and  _200
REMARK   82  A    between atoms: _200  and  _201
REMARK   83  A    between atoms: _203  and  _205
REMARK   84  A    between atoms: _205  and  _206
REMARK   85  A    between atoms: _209  and  _211
REMARK   86  A    between atoms: _211  and  _212
REMARK   87  A    between atoms: _211  and  _214
REMARK   88  A    between atoms: _214  and  _215
REMARK   89  A    between atoms: _218  and  _220
REMARK   90  A    between atoms: _220  and  _221
REMARK   91  A    between atoms: _220  and  _223
REMARK   92  A    between atoms: _223  and  _224
REMARK   93  A    between atoms: _227  and  _229
REMARK   94  A    between atoms: _229  and  _230
REMARK   95  A    between atoms: _229  and  _232
REMARK   96  A    between atoms: _232  and  _233
REMARK   97  A    between atoms: _236  and  _238
REMARK   98  A    between atoms: _238  and  _239
REMARK   99  A    between atoms: _242  and  _244
REMARK  100  A    between atoms: _244  and  _245
REMARK  101  A    between atoms: _244  and  _247
REMARK  102  A    between atoms: _247  and  _248
REMARK  103  A    between atoms: _253  and  _254
REMARK  104  A    between atoms: _256  and  _258
REMARK  105  A    between atoms: _258  and  _259
REMARK  106  A    between atoms: _258  and  _261
REMARK  107  A    between atoms: _261  and  _262
REMARK  108  A    between atoms: _267  and  _269
REMARK  109  A    between atoms: _269  and  _270
REMARK  110  A    between atoms: _269  and  _272
REMARK  111  A    between atoms: _272  and  _273
REMARK  112  A    between atoms: _276  and  _278
REMARK  113  A    between atoms: _278  and  _279
REMARK  114  A    between atoms: _278  and  _281
REMARK  115  A    between atoms: _281  and  _282
REMARK  116  A    between atoms: _288  and  _290
REMARK  117  A    between atoms: _290  and  _291
REMARK  118  A    between atoms: _293  and  _295
REMARK  119  A    between atoms: _295  and  _296
REMARK  120  A    between atoms: _295  and  _298
REMARK  121  A    between atoms: _298  and  _299
REMARK  122  A    between atoms: _299  and  _300
REMARK  123  A    between atoms: _300  and  _301
REMARK  124  A    between atoms: _301  and  _302
REMARK  125  A    between atoms: _306  and  _308
REMARK  126  A    between atoms: _308  and  _309
REMARK  127  A    between atoms: _308  and  _311
REMARK  128  A    between atoms: _311  and  _312
REMARK  129  A    between atoms: _317  and  _318
REMARK  130  A    between atoms: _320  and  _322
REMARK  131  A    between atoms: _322  and  _323
REMARK  132  A    between atoms: _322  and  _325
REMARK  133  A    between atoms: _325  and  _326
REMARK  134  A    between atoms: _329  and  _331
REMARK  135  A    between atoms: _331  and  _332
REMARK  136  A    between atoms: _331  and  _334
REMARK  137  A    between atoms: _334  and  _335
REMARK  138  A    between atoms: _340  and  _341
REMARK  139  A    between atoms: _343  and  _345
REMARK  140  A    between atoms: _345  and  _346
REMARK  141  A    between atoms: _345  and  _348
REMARK  142  A    between atoms: _348  and  _349
REMARK  143  A    between atoms: _354  and  _355
REMARK  144  A    between atoms: _357  and  _359
REMARK  145  A    between atoms: _359  and  _360
REMARK  146  A    between atoms: _359  and  _362
REMARK  147  A    between atoms: _362  and  _363
REMARK  148  A    between atoms: _368  and  _369
REMARK  149  A    between atoms: _371  and  _373
REMARK  150  A    between atoms: _373  and  _374
REMARK  151  A    between atoms: _373  and  _376
REMARK  152  A    between atoms: _376  and  _377
REMARK  153  A    between atoms: _377  and  _378
REMARK  154  A    between atoms: _381  and  _383
REMARK  155  A    between atoms: _383  and  _384
REMARK  156  A    between atoms: _383  and  _386
REMARK  157  A    between atoms: _386  and  _387
REMARK  158  A    between atoms: _389  and  _391
REMARK  159  A    between atoms: _391  and  _392
REMARK  160  A    between atoms: _391  and  _394
REMARK  161  A    between atoms: _394  and  _395
REMARK  162  A    between atoms: _395  and  _505
REMARK  163  A    between atoms: _396  and  _398
REMARK  164  A    between atoms: _398  and  _399
REMARK  165  A    between atoms: _398  and  _401
REMARK  166  A    between atoms: _401  and  _402
REMARK  167  A    between atoms: _402  and  _403
REMARK  168  A    between atoms: _408  and  _410
REMARK  169  A    between atoms: _410  and  _411
REMARK  170  A    between atoms: _413  and  _415
REMARK  171  A    between atoms: _415  and  _416
REMARK  172  A    between atoms: _415  and  _418
REMARK  173  A    between atoms: _418  and  _419
REMARK  174  A    between atoms: _422  and  _424
REMARK  175  A    between atoms: _424  and  _425
REMARK  176  A    between atoms: _424  and  _427
REMARK  177  A    between atoms: _427  and  _428
REMARK  178  A    between atoms: _430  and  _432
REMARK  179  A    between atoms: _432  and  _433
REMARK  180  A    between atoms: _435  and  _437
REMARK  181  A    between atoms: _437  and  _438
REMARK  182  A    between atoms: _440  and  _442
REMARK  183  A    between atoms: _442  and  _443
REMARK  184  A    between atoms: _442  and  _445
REMARK  185  A    between atoms: _448  and  _450
REMARK  186  A    between atoms: _450  and  _451
REMARK  187  A    between atoms: _450  and  _453
REMARK  188  A    between atoms: _453  and  _454
REMARK  189  A    between atoms: _456  and  _458
REMARK  190  A    between atoms: _458  and  _459
REMARK  191  A    between atoms: _458  and  _461
REMARK  192  A    between atoms: _461  and  _462
REMARK  193  A    between atoms: _472  and  _474
REMARK  194  A    between atoms: _474  and  _475
REMARK  195  A    between atoms: _477  and  _479
REMARK  196  A    between atoms: _479  and  _480
REMARK  197  A    between atoms: _479  and  _482
REMARK  198  A    between atoms: _482  and  _483
REMARK  199  A    between atoms: _483  and  _484
REMARK  200  A    between atoms: _484  and  _485
REMARK  201  A    between atoms: _494  and  _496
REMARK  202  A    between atoms: _496  and  _497
REMARK  203  A    between atoms: _499  and  _501
REMARK  204  A    between atoms: _501  and  _502
REMARK  205  A    between atoms: _501  and  _504
REMARK  206  A    between atoms: _504  and  _505
REMARK  207  A    between atoms: _506  and  _508
REMARK  208  A    between atoms: _508  and  _509
REMARK  209  A    between atoms: _508  and  _511
REMARK  210  A    between atoms: _511  and  _512
REMARK  211  A    between atoms: _515  and  _517
REMARK  212  A    between atoms: _517  and  _518
REMARK  213  A    between atoms: _517  and  _520
REMARK  214  A    between atoms: _520  and  _521
REMARK  215  A    between atoms: _521  and  _522
REMARK  216  A    between atoms: _522  and  _523
REMARK  217  A    between atoms: _523  and  _524
REMARK  218  A    between atoms: _529  and  _530
REMARK  219  A    between atoms: _535  and  _537
REMARK  220  A    between atoms: _537  and  _538
REMARK  221  A    between atoms: _537  and  _540
REMARK                            x       y       z     vdW  Elec       q    Type
REMARK                         _______ _______ _______ _____ _____    ______ ____
ROOT
ATOM      1  O   HOH     1       8.495 -42.540 -35.842  0.00  0.00    +0.000 OA
ENDROOT
TORSDOF 0
REMARK  Name = ../refined-set-2016/4zhm/4zhm_pocket.pdb
REMARK  221 active torsions:
REMARK  status: ('A' for Active; 'I' for Inactive)
REMARK    1  A    between atoms: _1  and  _3
REMARK    2  A    between atoms: _3  and  _4
REMARK    3  A    between atoms: _3  and  _6
REMARK    4  A    between atoms: _6  and  _7
REMARK    5  A    between atoms: _10  and  _12
REMARK    6  A    between atoms: _12  and  _13
REMARK    7  A    between atoms: _12  and  _15
REMARK    8  A    between atoms: _15  and  _16
REMARK    9  A    between atoms: _16  and  _17
REMARK   10  A    between atoms: _17  and  _18
REMARK   11  A    between atoms: _27  and  _29
REMARK   12  A    between atoms: _29  and  _30
REMARK   13  A    between atoms: _29  and  _32
REMARK   14  A    between atoms: _32  and  _33
REMARK   15  A    between atoms: _38  and  _40
REMARK   16  A    between atoms: _40  and  _41
REMARK   17  A    between atoms: _40  and  _43
REMARK   18  A    between atoms: _43  and  _44
REMARK   19  A    between atoms: _47  and  _49
REMARK   20  A    between atoms: _49  and  _50
REMARK   21  A    between atoms: _49  and  _52
REMARK   22  A    between atoms: _52  and  _53
REMARK   23  A    between atoms: _58  and  _59
REMARK   24  A    between atoms: _61  and  _63
REMARK   25  A    between atoms: _63  and  _64
REMARK   26  A    between atoms: _63  and  _66
REMARK   27  A    between atoms: _69  and  _71
REMARK   28  A    between atoms: _71  and  _72
REMARK   29  A    between atoms: _71  and  _74
REMARK   30  A    between atoms: _74  and  _75
REMARK   31  A    between atoms: _75  and  _113
REMARK   32  A    between atoms: _76  and  _78
REMARK   33  A    between atoms: _78  and  _79
REMARK   34  A    between atoms: _81  and  _83
REMARK   35  A    between atoms: _83  and  _84
REMARK   36  A    between atoms: _87  and  _89
REMARK   37  A    between atoms: _89  and  _90
REMARK   38  A    between atoms: _89  and  _92
REMARK   39  A    between atoms: _92  and  _93
REMARK   40  A    between atoms: _96  and  _98
REMARK   41  A    between atoms: _98  and  _99
REMARK   42  A    between atoms: _98  and  _101
REMARK   43  A    between atoms: _101  and  _102
REMARK   44  A    between atoms: _107  and  _109
REMARK   45  A    between atoms: _109  and  _110
REMARK   46  A    between atoms: _109  and  _112
REMARK   47  A    between atoms: _112  and  _113
REMARK   48  A    between atoms: _114  and  _116
REMARK   49  A    between atoms: _116  and  _117
REMARK   50  A    between atoms: _116  and  _119
REMARK   51  A    between atoms: _119  and  _120
REMARK   52  A    between atoms: _126  and  _128
REMARK   53  A    between atoms: _128  and  _129
REMARK   54  A    between atoms: _128  and  _131
REMARK   55  A    between atoms: _131  and  _132
REMARK   56  A    between atoms: _135  and  _137
REMARK   57  A    between atoms: _137  and  _138
REMARK   58  A    between atoms: _137  and  _140
REMARK   59  A    between atoms: _140  and  _141
REMARK   60  A    between atoms: _144  and  _146
REMARK   61  A    between atoms: _146  and  _147
REMARK   62  A    between atoms: _146  and  _149
REMARK   63  A    between atoms: _149  and  _150
REMARK   64  A    between atoms: _155  and  _156
REMARK   65  A    between atoms: _158  and  _160
REMARK   66  A    between atoms: _160  and  _161
REMARK   67  A    between atoms: _160  and  _163
REMARK   68  A    between atoms: _163  and  _164
REMARK   69  A    between atoms: _169  and  _170
REMARK   70  A    between atoms: _172  and  _174
REMARK   71  A    between atoms: _174  and  _175
REMARK   72  A    between atoms: _174  and  _177
REMARK   73  A    between atoms: _177  and  _178
REMARK   74  A    between atoms: _181  and  _183
REMARK   75  A    between atoms: _183  and  _184
REMARK   76  A    between atoms: _183  and  _186
REMARK   77  A    between atoms: _186  and  _187
REMARK   78  A    between atoms: _192  and  _193
REMARK   79  A    between atoms: _195  and  _197
REMARK   80  A    between atoms: _197  and  _198
REMARK   81  A    between atoms: _197  and  _200
REMARK   82  A    between atoms: _200  and  _201
REMARK   83  A    between atoms: _203  and  _205
REMARK   84  A    between atoms: _205  and  _206
REMARK   85  A    between atoms: _209  and  _211
REMARK   86  A    between atoms: _211  and  _212
REMARK   87  A    between atoms: _211  and  _214
REMARK   88  A    between atoms: _214  and  _215
REMARK   89  A    between atoms: _218  and  _220
REMARK   90  A    between atoms: _220  and  _221
REMARK   91  A    between atoms: _220  and  _223
REMARK   92  A    between atoms: _223  and  _224
REMARK   93  A    between atoms: _227  and  _229
REMARK   94  A    between atoms: _229  and  _230
REMARK   95  A    between atoms: _229  and  _232
REMARK   96  A    between atoms: _232  and  _233
REMARK   97  A    between atoms: _236  and  _238
REMARK   98  A    between atoms: _238  and  _239
REMARK   99  A    between atoms: _242  and  _244
REMARK  100  A    between atoms: _244  and  _245
REMARK  101  A    between atoms: _244  and  _247
REMARK  102  A    between atoms: _247  and  _248
REMARK  103  A    between atoms: _253  and  _254
REMARK  104  A    between atoms: _256  and  _258
REMARK  105  A    between atoms: _258  and  _259
REMARK  106  A    between atoms: _258  and  _261
REMARK  107  A    between atoms: _261  and  _262
REMARK  108  A    between atoms: _267  and  _269
REMARK  109  A    between atoms: _269  and  _270
REMARK  110  A    between atoms: _269  and  _272
REMARK  111  A    between atoms: _272  and  _273
REMARK  112  A    between atoms: _276  and  _278
REMARK  113  A    between atoms: _278  and  _279
REMARK  114  A    between atoms: _278  and  _281
REMARK  115  A    between atoms: _281  and  _282
REMARK  116  A    between atoms: _288  and  _290
REMARK  117  A    between atoms: _290  and  _291
REMARK  118  A    between atoms: _293  and  _295
REMARK  119  A    between atoms: _295  and  _296
REMARK  120  A    between atoms: _295  and  _298
REMARK  121  A    between atoms: _298  and  _299
REMARK  122  A    between atoms: _299  and  _300
REMARK  123  A    between atoms: _300  and  _301
REMARK  124  A    between atoms: _301  and  _302
REMARK  125  A    between atoms: _306  and  _308
REMARK  126  A    between atoms: _308  and  _309
REMARK  127  A    between atoms: _308  and  _311
REMARK  128  A    between atoms: _311  and  _312
REMARK  129  A    between atoms: _317  and  _318
REMARK  130  A    between atoms: _320  and  _322
REMARK  131  A    between atoms: _322  and  _323
REMARK  132  A    between atoms: _322  and  _325
REMARK  133  A    between atoms: _325  and  _326
REMARK  134  A    between atoms: _329  and  _331
REMARK  135  A    between atoms: _331  and  _332
REMARK  136  A    between atoms: _331  and  _334
REMARK  137  A    between atoms: _334  and  _335
REMARK  138  A    between atoms: _340  and  _341
REMARK  139  A    between atoms: _343  and  _345
REMARK  140  A    between atoms: _345  and  _346
REMARK  141  A    between atoms: _345  and  _348
REMARK  142  A    between atoms: _348  and  _349
REMARK  143  A    between atoms: _354  and  _355
REMARK  144  A    between atoms: _357  and  _359
REMARK  145  A    between atoms: _359  and  _360
REMARK  146  A    between atoms: _359  and  _362
REMARK  147  A    between atoms: _362  and  _363
REMARK  148  A    between atoms: _368  and  _369
REMARK  149  A    between atoms: _371  and  _373
REMARK  150  A    between atoms: _373  and  _374
REMARK  151  A    between atoms: _373  and  _376
REMARK  152  A    between atoms: _376  and  _377
REMARK  153  A    between atoms: _377  and  _378
REMARK  154  A    between atoms: _381  and  _383
REMARK  155  A    between atoms: _383  and  _384
REMARK  156  A    between atoms: _383  and  _386
REMARK  157  A    between atoms: _386  and  _387
REMARK  158  A    between atoms: _389  and  _391
REMARK  159  A    between atoms: _391  and  _392
REMARK  160  A    between atoms: _391  and  _394
REMARK  161  A    between atoms: _394  and  _395
REMARK  162  A    between atoms: _395  and  _505
REMARK  163  A    between atoms: _396  and  _398
REMARK  164  A    between atoms: _398  and  _399
REMARK  165  A    between atoms: _398  and  _401
REMARK  166  A    between atoms: _401  and  _402
REMARK  167  A    between atoms: _402  and  _403
REMARK  168  A    between atoms: _408  and  _410
REMARK  169  A    between atoms: _410  and  _411
REMARK  170  A    between atoms: _413  and  _415
REMARK  171  A    between atoms: _415  and  _416
REMARK  172  A    between atoms: _415  and  _418
REMARK  173  A    between atoms: _418  and  _419
REMARK  174  A    between atoms: _422  and  _424
REMARK  175  A    between atoms: _424  and  _425
REMARK  176  A    between atoms: _424  and  _427
REMARK  177  A    between atoms: _427  and  _428
REMARK  178  A    between atoms: _430  and  _432
REMARK  179  A    between atoms: _432  and  _433
REMARK  180  A    between atoms: _435  and  _437
REMARK  181  A    between atoms: _437  and  _438
REMARK  182  A    between atoms: _440  and  _442
REMARK  183  A    between atoms: _442  and  _443
REMARK  184  A    between atoms: _442  and  _445
REMARK  185  A    between atoms: _448  and  _450
REMARK  186  A    between atoms: _450  and  _451
REMARK  187  A    between atoms: _450  and  _453
REMARK  188  A    between atoms: _453  and  _454
REMARK  189  A    between atoms: _456  and  _458
REMARK  190  A    between atoms: _458  and  _459
REMARK  191  A    between atoms: _458  and  _461
REMARK  192  A    between atoms: _461  and  _462
REMARK  193  A    between atoms: _472  and  _474
REMARK  194  A    between atoms: _474  and  _475
REMARK  195  A    between atoms: _477  and  _479
REMARK  196  A    between atoms: _479  and  _480
REMARK  197  A    between atoms: _479  and  _482
REMARK  198  A    between atoms: _482  and  _483
REMARK  199  A    between atoms: _483  and  _484
REMARK  200  A    between atoms: _484  and  _485
REMARK  201  A    between atoms: _494  and  _496
REMARK  202  A    between atoms: _496  and  _497
REMARK  203  A    between atoms: _499  and  _501
REMARK  204  A    between atoms: _501  and  _502
REMARK  205  A    between atoms: _501  and  _504
REMARK  206  A    between atoms: _504  and  _505
REMARK  207  A    between atoms: _506  and  _508
REMARK  208  A    between atoms: _508  and  _509
REMARK  209  A    between atoms: _508  and  _511
REMARK  210  A    between atoms: _511  and  _512
REMARK  211  A    between atoms: _515  and  _517
REMARK  212  A    between atoms: _517  and  _518
REMARK  213  A    between atoms: _517  and  _520
REMARK  214  A    between atoms: _520  and  _521
REMARK  215  A    between atoms: _521  and  _522
REMARK  216  A    between atoms: _522  and  _523
REMARK  217  A    between atoms: _523  and  _524
REMARK  218  A    between atoms: _529  and  _530
REMARK  219  A    between atoms: _535  and  _537
REMARK  220  A    between atoms: _537  and  _538
REMARK  221  A    between atoms: _537  and  _540
REMARK                            x       y       z     vdW  Elec       q    Type
REMARK                         _______ _______ _______ _____ _____    ______ ____
ROOT
ATOM      1  O   HOH     1      -5.073 -20.145 -30.214  0.00  0.00    +0.000 OA
ENDROOT
TORSDOF 0
