REMARK  Name = ../refined-set-2016/4f0c/4f0c_pocket.pdb
REMARK  234 active torsions:
REMARK  status: ('A' for Active; 'I' for Inactive)
REMARK    1  A    between atoms: _1  and  _3
REMARK    2  A    between atoms: _3  and  _4
REMARK    3  A    between atoms: _3  and  _6
REMARK    4  A    between atoms: _6  and  _7
REMARK    5  A    between atoms: _12  and  _14
REMARK    6  A    between atoms: _14  and  _15
REMARK    7  A    between atoms: _14  and  _17
REMARK    8  A    between atoms: _17  and  _18
REMARK    9  A    between atoms: _23  and  _25
REMARK   10  A    between atoms: _25  and  _26
REMARK   11  A    between atoms: _25  and  _28
REMARK   12  A    between atoms: _31  and  _33
REMARK   13  A    between atoms: _33  and  _34
REMARK   14  A    between atoms: _37  and  _38
REMARK   15  A    between atoms: _43  and  _45
REMARK   16  A    between atoms: _45  and  _46
REMARK   17  A    between atoms: _45  and  _48
REMARK   18  A    between atoms: _48  and  _49
REMARK   19  A    between atoms: _54  and  _56
REMARK   20  A    between atoms: _56  and  _57
REMARK   21  A    between atoms: _59  and  _61
REMARK   22  A    between atoms: _61  and  _62
REMARK   23  A    between atoms: _61  and  _64
REMARK   24  A    between atoms: _64  and  _65
REMARK   25  A    between atoms: _75  and  _77
REMARK   26  A    between atoms: _77  and  _78
REMARK   27  A    between atoms: _77  and  _80
REMARK   28  A    between atoms: _80  and  _81
REMARK   29  A    between atoms: _81  and  _82
REMARK   30  A    between atoms: _82  and  _83
REMARK   31  A    between atoms: _83  and  _84
REMARK   32  A    between atoms: _88  and  _90
REMARK   33  A    between atoms: _90  and  _91
REMARK   34  A    between atoms: _90  and  _93
REMARK   35  A    between atoms: _96  and  _98
REMARK   36  A    between atoms: _98  and  _99
REMARK   37  A    between atoms: _98  and  _101
REMARK   38  A    between atoms: _104  and  _106
REMARK   39  A    between atoms: _106  and  _107
REMARK   40  A    between atoms: _106  and  _109
REMARK   41  A    between atoms: _109  and  _110
REMARK   42  A    between atoms: _113  and  _115
REMARK   43  A    between atoms: _115  and  _116
REMARK   44  A    between atoms: _118  and  _120
REMARK   45  A    between atoms: _120  and  _121
REMARK   46  A    between atoms: _120  and  _123
REMARK   47  A    between atoms: _123  and  _124
REMARK   48  A    between atoms: _124  and  _125
REMARK   49  A    between atoms: _125  and  _126
REMARK   50  A    between atoms: _135  and  _137
REMARK   51  A    between atoms: _137  and  _138
REMARK   52  A    between atoms: _137  and  _140
REMARK   53  A    between atoms: _140  and  _141
REMARK   54  A    between atoms: _146  and  _148
REMARK   55  A    between atoms: _148  and  _149
REMARK   56  A    between atoms: _148  and  _151
REMARK   57  A    between atoms: _151  and  _152
REMARK   58  A    between atoms: _152  and  _153
REMARK   59  A    between atoms: _153  and  _154
REMARK   60  A    between atoms: _154  and  _155
REMARK   61  A    between atoms: _159  and  _161
REMARK   62  A    between atoms: _161  and  _162
REMARK   63  A    between atoms: _161  and  _164
REMARK   64  A    between atoms: _164  and  _165
REMARK   65  A    between atoms: _171  and  _173
REMARK   66  A    between atoms: _173  and  _174
REMARK   67  A    between atoms: _173  and  _176
REMARK   68  A    between atoms: _176  and  _177
REMARK   69  A    between atoms: _182  and  _184
REMARK   70  A    between atoms: _184  and  _185
REMARK   71  A    between atoms: _184  and  _187
REMARK   72  A    between atoms: _187  and  _188
REMARK   73  A    between atoms: _193  and  _195
REMARK   74  A    between atoms: _195  and  _196
REMARK   75  A    between atoms: _198  and  _200
REMARK   76  A    between atoms: _200  and  _201
REMARK   77  A    between atoms: _200  and  _203
REMARK   78  A    between atoms: _203  and  _204
REMARK   79  A    between atoms: _204  and  _205
REMARK   80  A    between atoms: _205  and  _206
REMARK   81  A    between atoms: _215  and  _217
REMARK   82  A    between atoms: _217  and  _218
REMARK   83  A    between atoms: _217  and  _220
REMARK   84  A    between atoms: _220  and  _221
REMARK   85  A    between atoms: _225  and  _226
REMARK   86  A    between atoms: _231  and  _233
REMARK   87  A    between atoms: _233  and  _234
REMARK   88  A    between atoms: _237  and  _239
REMARK   89  A    between atoms: _239  and  _240
REMARK   90  A    between atoms: _239  and  _242
REMARK   91  A    between atoms: _242  and  _243
REMARK   92  A    between atoms: _253  and  _255
REMARK   93  A    between atoms: _255  and  _256
REMARK   94  A    between atoms: _255  and  _258
REMARK   95  A    between atoms: _258  and  _259
REMARK   96  A    between atoms: _259  and  _260
REMARK   97  A    between atoms: _263  and  _265
REMARK   98  A    between atoms: _265  and  _266
REMARK   99  A    between atoms: _265  and  _268
REMARK  100  A    between atoms: _268  and  _269
REMARK  101  A    between atoms: _271  and  _273
REMARK  102  A    between atoms: _273  and  _274
REMARK  103  A    between atoms: _273  and  _276
REMARK  104  A    between atoms: _276  and  _277
REMARK  105  A    between atoms: _280  and  _282
REMARK  106  A    between atoms: _282  and  _283
REMARK  107  A    between atoms: _286  and  _288
REMARK  108  A    between atoms: _288  and  _289
REMARK  109  A    between atoms: _288  and  _291
REMARK  110  A    between atoms: _291  and  _292
REMARK  111  A    between atoms: _295  and  _297
REMARK  112  A    between atoms: _297  and  _298
REMARK  113  A    between atoms: _297  and  _300
REMARK  114  A    between atoms: _300  and  _301
REMARK  115  A    between atoms: _301  and  _302
REMARK  116  A    between atoms: _307  and  _309
REMARK  117  A    between atoms: _309  and  _310
REMARK  118  A    between atoms: _313  and  _315
REMARK  119  A    between atoms: _315  and  _316
REMARK  120  A    between atoms: _315  and  _318
REMARK  121  A    between atoms: _318  and  _319
REMARK  122  A    between atoms: _321  and  _323
REMARK  123  A    between atoms: _323  and  _324
REMARK  124  A    between atoms: _326  and  _328
REMARK  125  A    between atoms: _328  and  _329
REMARK  126  A    between atoms: _328  and  _331
REMARK  127  A    between atoms: _331  and  _332
REMARK  128  A    between atoms: _332  and  _333
REMARK  129  A    between atoms: _338  and  _340
REMARK  130  A    between atoms: _340  and  _341
REMARK  131  A    between atoms: _344  and  _345
REMARK  132  A    between atoms: _350  and  _352
REMARK  133  A    between atoms: _352  and  _353
REMARK  134  A    between atoms: _352  and  _355
REMARK  135  A    between atoms: _355  and  _356
REMARK  136  A    between atoms: _361  and  _362
REMARK  137  A    between atoms: _364  and  _366
REMARK  138  A    between atoms: _366  and  _367
REMARK  139  A    between atoms: _366  and  _369
REMARK  140  A    between atoms: _369  and  _370
REMARK  141  A    between atoms: _376  and  _378
REMARK  142  A    between atoms: _378  and  _379
REMARK  143  A    between atoms: _381  and  _383
REMARK  144  A    between atoms: _383  and  _384
REMARK  145  A    between atoms: _383  and  _386
REMARK  146  A    between atoms: _386  and  _387
REMARK  147  A    between atoms: _387  and  _388
REMARK  148  A    between atoms: _393  and  _395
REMARK  149  A    between atoms: _395  and  _396
REMARK  150  A    between atoms: _399  and  _401
REMARK  151  A    between atoms: _401  and  _402
REMARK  152  A    between atoms: _404  and  _406
REMARK  153  A    between atoms: _406  and  _407
REMARK  154  A    between atoms: _406  and  _409
REMARK  155  A    between atoms: _409  and  _410
REMARK  156  A    between atoms: _420  and  _422
REMARK  157  A    between atoms: _422  and  _423
REMARK  158  A    between atoms: _422  and  _425
REMARK  159  A    between atoms: _425  and  _426
REMARK  160  A    between atoms: _432  and  _434
REMARK  161  A    between atoms: _434  and  _435
REMARK  162  A    between atoms: _434  and  _437
REMARK  163  A    between atoms: _440  and  _442
REMARK  164  A    between atoms: _442  and  _443
REMARK  165  A    between atoms: _446  and  _448
REMARK  166  A    between atoms: _448  and  _449
REMARK  167  A    between atoms: _448  and  _451
REMARK  168  A    between atoms: _451  and  _452
REMARK  169  A    between atoms: _452  and  _453
REMARK  170  A    between atoms: _456  and  _458
REMARK  171  A    between atoms: _458  and  _459
REMARK  172  A    between atoms: _458  and  _461
REMARK  173  A    between atoms: _461  and  _462
REMARK  174  A    between atoms: _472  and  _474
REMARK  175  A    between atoms: _474  and  _475
REMARK  176  A    between atoms: _474  and  _477
REMARK  177  A    between atoms: _477  and  _478
REMARK  178  A    between atoms: _478  and  _479
REMARK  179  A    between atoms: _479  and  _480
REMARK  180  A    between atoms: _480  and  _481
REMARK  181  A    between atoms: _485  and  _487
REMARK  182  A    between atoms: _487  and  _488
REMARK  183  A    between atoms: _487  and  _490
REMARK  184  A    between atoms: _490  and  _491
REMARK  185  A    between atoms: _497  and  _499
REMARK  186  A    between atoms: _499  and  _500
REMARK  187  A    between atoms: _499  and  _502
REMARK  188  A    between atoms: _502  and  _503
REMARK  189  A    between atoms: _509  and  _511
REMARK  190  A    between atoms: _511  and  _512
REMARK  191  A    between atoms: _511  and  _514
REMARK  192  A    between atoms: _514  and  _515
REMARK  193  A    between atoms: _515  and  _516
REMARK  194  A    between atoms: _521  and  _523
REMARK  195  A    between atoms: _523  and  _524
REMARK  196  A    between atoms: _527  and  _529
REMARK  197  A    between atoms: _529  and  _530
REMARK  198  A    between atoms: _529  and  _532
REMARK  199  A    between atoms: _532  and  _533
REMARK  200  A    between atoms: _535  and  _537
REMARK  201  A    between atoms: _537  and  _538
REMARK  202  A    between atoms: _540  and  _542
REMARK  203  A    between atoms: _542  and  _543
REMARK  204  A    between atoms: _542  and  _545
REMARK  205  A    between atoms: _545  and  _546
REMARK  206  A    between atoms: _546  and  _547
REMARK  207  A    between atoms: _553  and  _554
REMARK  208  A    between atoms: _559  and  _561
REMARK  209  A    between atoms: _561  and  _562
REMARK  210  A    between atoms: _561  and  _564
REMARK  211  A    between atoms: _564  and  _565
REMARK  212  A    between atoms: _570  and  _571
REMARK  213  A    between atoms: _573  and  _575
REMARK  214  A    between atoms: _575  and  _576
REMARK  215  A    between atoms: _575  and  _578
REMARK  216  A    between atoms: _578  and  _579
REMARK  217  A    between atoms: _579  and  _580
REMARK  218  A    between atoms: _580  and  _581
REMARK  219  A    between atoms: _590  and  _592
REMARK  220  A    between atoms: _592  and  _593
REMARK  221  A    between atoms: _592  and  _595
REMARK  222  A    between atoms: _595  and  _596
REMARK  223  A    between atoms: _601  and  _602
REMARK  224  A    between atoms: _604  and  _606
REMARK  225  A    between atoms: _606  and  _607
REMARK  226  A    between atoms: _606  and  _609
REMARK  227  A    between atoms: _609  and  _610
REMARK  228  A    between atoms: _610  and  _611
REMARK  229  A    between atoms: _614  and  _616
REMARK  230  A    between atoms: _616  and  _617
REMARK  231  A    between atoms: _616  and  _619
REMARK  232  A    between atoms: _619  and  _620
REMARK  233  A    between atoms: _620  and  _621
REMARK  234  A    between atoms: _621  and  _622
REMARK                            x       y       z     vdW  Elec       q    Type
REMARK                         _______ _______ _______ _____ _____    ______ ____
ROOT
ATOM      1  C   ASN A   1       0.426  22.707  15.544  0.00  0.00    +0.239 C 
ATOM      2  N   HIS A   2       0.897  21.491  15.802  0.00  0.00    -0.298 N 
ATOM      3  H   HIS A   2       1.923  21.330  15.740  0.00  0.00    +0.150 HD
ATOM      4  O   ASN A   1      -0.789  22.941  15.442  0.00  0.00    -0.274 OA
ENDROOT
BRANCH   1   5
ATOM      5  CA  ASN A   1       1.473  23.818  15.373  0.00  0.00    +0.154 C 
BRANCH   5   6
ATOM      6  N   ASN A   1       0.804  25.073  15.126  0.00  0.00    -0.238 NA
ATOM      7  H   ASN A   1       0.038  25.368  15.764  0.00  0.00    +0.142 HD
ENDBRANCH   5   6
BRANCH   5   8
ATOM      8  CB  ASN A   1       2.360  23.985  16.637  0.00  0.00    +0.111 C 
BRANCH   8   9
ATOM      9  CG  ASN A   1       3.537  23.002  16.687  0.00  0.00    +0.221 C 
ATOM     10  ND2 ASN A   1       4.423  23.184  17.658  0.00  0.00    -0.329 N 
ATOM     11 HD21 ASN A   1       4.300  23.964  18.335  0.00  0.00    +0.145 HD
ATOM     12 HD22 ASN A   1       5.240  22.547  17.742  0.00  0.00    +0.145 HD
ATOM     13  OD1 ASN A   1       3.638  22.097  15.865  0.00  0.00    -0.275 OA
ENDBRANCH   8   9
ENDBRANCH   5   8
ENDBRANCH   1   5
BRANCH   2  14
ATOM     14  CA  HIS A   2       0.034  20.374  16.168  0.00  0.00    +0.143 C 
BRANCH  14  15
ATOM     15  C   HIS A   2       0.788  19.555  17.218  0.00  0.00    +0.227 C 
ATOM     16  O   HIS A   2       2.025  19.469  17.159  0.00  0.00    -0.286 OA
ENDBRANCH  14  15
BRANCH  14  17
ATOM     17  CB  HIS A   2      -0.283  19.477  14.954  0.00  0.00    +0.075 C 
BRANCH  17  18
ATOM     18  CG  HIS A   2      -1.368  18.483  15.225  0.00  0.00    +0.082 A 
ATOM     19  CD2 HIS A   2      -2.701  18.647  15.421  0.00  0.00    +0.115 A 
ATOM     20  NE2 HIS A   2      -3.231  17.404  15.674  0.00  0.00    -0.221 NA
ATOM     21  CE1 HIS A   2      -2.259  16.508  15.648  0.00  0.00    +0.199 A 
ATOM     22  ND1 HIS A   2      -1.123  17.138  15.392  0.00  0.00    -0.227 NA
ENDBRANCH  17  18
ENDBRANCH  14  17
ENDBRANCH   2  14
TORSDOF 8
REMARK  Name = ../refined-set-2016/4f0c/4f0c_pocket.pdb
REMARK  234 active torsions:
REMARK  status: ('A' for Active; 'I' for Inactive)
REMARK    1  A    between atoms: _1  and  _3
REMARK    2  A    between atoms: _3  and  _4
REMARK    3  A    between atoms: _3  and  _6
REMARK    4  A    between atoms: _6  and  _7
REMARK    5  A    between atoms: _12  and  _14
REMARK    6  A    between atoms: _14  and  _15
REMARK    7  A    between atoms: _14  and  _17
REMARK    8  A    between atoms: _17  and  _18
REMARK    9  A    between atoms: _23  and  _25
REMARK   10  A    between atoms: _25  and  _26
REMARK   11  A    between atoms: _25  and  _28
REMARK   12  A    between atoms: _31  and  _33
REMARK   13  A    between atoms: _33  and  _34
REMARK   14  A    between atoms: _37  and  _38
REMARK   15  A    between atoms: _43  and  _45
REMARK   16  A    between atoms: _45  and  _46
REMARK   17  A    between atoms: _45  and  _48
REMARK   18  A    between atoms: _48  and  _49
REMARK   19  A    between atoms: _54  and  _56
REMARK   20  A    between atoms: _56  and  _57
REMARK   21  A    between atoms: _59  and  _61
REMARK   22  A    between atoms: _61  and  _62
REMARK   23  A    between atoms: _61  and  _64
REMARK   24  A    between atoms: _64  and  _65
REMARK   25  A    between atoms: _75  and  _77
REMARK   26  A    between atoms: _77  and  _78
REMARK   27  A    between atoms: _77  and  _80
REMARK   28  A    between atoms: _80  and  _81
REMARK   29  A    between atoms: _81  and  _82
REMARK   30  A    between atoms: _82  and  _83
REMARK   31  A    between atoms: _83  and  _84
REMARK   32  A    between atoms: _88  and  _90
REMARK   33  A    between atoms: _90  and  _91
REMARK   34  A    between atoms: _90  and  _93
REMARK   35  A    between atoms: _96  and  _98
REMARK   36  A    between atoms: _98  and  _99
REMARK   37  A    between atoms: _98  and  _101
REMARK   38  A    between atoms: _104  and  _106
REMARK   39  A    between atoms: _106  and  _107
REMARK   40  A    between atoms: _106  and  _109
REMARK   41  A    between atoms: _109  and  _110
REMARK   42  A    between atoms: _113  and  _115
REMARK   43  A    between atoms: _115  and  _116
REMARK   44  A    between atoms: _118  and  _120
REMARK   45  A    between atoms: _120  and  _121
REMARK   46  A    between atoms: _120  and  _123
REMARK   47  A    between atoms: _123  and  _124
REMARK   48  A    between atoms: _124  and  _125
REMARK   49  A    between atoms: _125  and  _126
REMARK   50  A    between atoms: _135  and  _137
REMARK   51  A    between atoms: _137  and  _138
REMARK   52  A    between atoms: _137  and  _140
REMARK   53  A    between atoms: _140  and  _141
REMARK   54  A    between atoms: _146  and  _148
REMARK   55  A    between atoms: _148  and  _149
REMARK   56  A    between atoms: _148  and  _151
REMARK   57  A    between atoms: _151  and  _152
REMARK   58  A    between atoms: _152  and  _153
REMARK   59  A    between atoms: _153  and  _154
REMARK   60  A    between atoms: _154  and  _155
REMARK   61  A    between atoms: _159  and  _161
REMARK   62  A    between atoms: _161  and  _162
REMARK   63  A    between atoms: _161  and  _164
REMARK   64  A    between atoms: _164  and  _165
REMARK   65  A    between atoms: _171  and  _173
REMARK   66  A    between atoms: _173  and  _174
REMARK   67  A    between atoms: _173  and  _176
REMARK   68  A    between atoms: _176  and  _177
REMARK   69  A    between atoms: _182  and  _184
REMARK   70  A    between atoms: _184  and  _185
REMARK   71  A    between atoms: _184  and  _187
REMARK   72  A    between atoms: _187  and  _188
REMARK   73  A    between atoms: _193  and  _195
REMARK   74  A    between atoms: _195  and  _196
REMARK   75  A    between atoms: _198  and  _200
REMARK   76  A    between atoms: _200  and  _201
REMARK   77  A    between atoms: _200  and  _203
REMARK   78  A    between atoms: _203  and  _204
REMARK   79  A    between atoms: _204  and  _205
REMARK   80  A    between atoms: _205  and  _206
REMARK   81  A    between atoms: _215  and  _217
REMARK   82  A    between atoms: _217  and  _218
REMARK   83  A    between atoms: _217  and  _220
REMARK   84  A    between atoms: _220  and  _221
REMARK   85  A    between atoms: _225  and  _226
REMARK   86  A    between atoms: _231  and  _233
REMARK   87  A    between atoms: _233  and  _234
REMARK   88  A    between atoms: _237  and  _239
REMARK   89  A    between atoms: _239  and  _240
REMARK   90  A    between atoms: _239  and  _242
REMARK   91  A    between atoms: _242  and  _243
REMARK   92  A    between atoms: _253  and  _255
REMARK   93  A    between atoms: _255  and  _256
REMARK   94  A    between atoms: _255  and  _258
REMARK   95  A    between atoms: _258  and  _259
REMARK   96  A    between atoms: _259  and  _260
REMARK   97  A    between atoms: _263  and  _265
REMARK   98  A    between atoms: _265  and  _266
REMARK   99  A    between atoms: _265  and  _268
REMARK  100  A    between atoms: _268  and  _269
REMARK  101  A    between atoms: _271  and  _273
REMARK  102  A    between atoms: _273  and  _274
REMARK  103  A    between atoms: _273  and  _276
REMARK  104  A    between atoms: _276  and  _277
REMARK  105  A    between atoms: _280  and  _282
REMARK  106  A    between atoms: _282  and  _283
REMARK  107  A    between atoms: _286  and  _288
REMARK  108  A    between atoms: _288  and  _289
REMARK  109  A    between atoms: _288  and  _291
REMARK  110  A    between atoms: _291  and  _292
REMARK  111  A    between atoms: _295  and  _297
REMARK  112  A    between atoms: _297  and  _298
REMARK  113  A    between atoms: _297  and  _300
REMARK  114  A    between atoms: _300  and  _301
REMARK  115  A    between atoms: _301  and  _302
REMARK  116  A    between atoms: _307  and  _309
REMARK  117  A    between atoms: _309  and  _310
REMARK  118  A    between atoms: _313  and  _315
REMARK  119  A    between atoms: _315  and  _316
REMARK  120  A    between atoms: _315  and  _318
REMARK  121  A    between atoms: _318  and  _319
REMARK  122  A    between atoms: _321  and  _323
REMARK  123  A    between atoms: _323  and  _324
REMARK  124  A    between atoms: _326  and  _328
REMARK  125  A    between atoms: _328  and  _329
REMARK  126  A    between atoms: _328  and  _331
REMARK  127  A    between atoms: _331  and  _332
REMARK  128  A    between atoms: _332  and  _333
REMARK  129  A    between atoms: _338  and  _340
REMARK  130  A    between atoms: _340  and  _341
REMARK  131  A    between atoms: _344  and  _345
REMARK  132  A    between atoms: _350  and  _352
REMARK  133  A    between atoms: _352  and  _353
REMARK  134  A    between atoms: _352  and  _355
REMARK  135  A    between atoms: _355  and  _356
REMARK  136  A    between atoms: _361  and  _362
REMARK  137  A    between atoms: _364  and  _366
REMARK  138  A    between atoms: _366  and  _367
REMARK  139  A    between atoms: _366  and  _369
REMARK  140  A    between atoms: _369  and  _370
REMARK  141  A    between atoms: _376  and  _378
REMARK  142  A    between atoms: _378  and  _379
REMARK  143  A    between atoms: _381  and  _383
REMARK  144  A    between atoms: _383  and  _384
REMARK  145  A    between atoms: _383  and  _386
REMARK  146  A    between atoms: _386  and  _387
REMARK  147  A    between atoms: _387  and  _388
REMARK  148  A    between atoms: _393  and  _395
REMARK  149  A    between atoms: _395  and  _396
REMARK  150  A    between atoms: _399  and  _401
REMARK  151  A    between atoms: _401  and  _402
REMARK  152  A    between atoms: _404  and  _406
REMARK  153  A    between atoms: _406  and  _407
REMARK  154  A    between atoms: _406  and  _409
REMARK  155  A    between atoms: _409  and  _410
REMARK  156  A    between atoms: _420  and  _422
REMARK  157  A    between atoms: _422  and  _423
REMARK  158  A    between atoms: _422  and  _425
REMARK  159  A    between atoms: _425  and  _426
REMARK  160  A    between atoms: _432  and  _434
REMARK  161  A    between atoms: _434  and  _435
REMARK  162  A    between atoms: _434  and  _437
REMARK  163  A    between atoms: _440  and  _442
REMARK  164  A    between atoms: _442  and  _443
REMARK  165  A    between atoms: _446  and  _448
REMARK  166  A    between atoms: _448  and  _449
REMARK  167  A    between atoms: _448  and  _451
REMARK  168  A    between atoms: _451  and  _452
REMARK  169  A    between atoms: _452  and  _453
REMARK  170  A    between atoms: _456  and  _458
REMARK  171  A    between atoms: _458  and  _459
REMARK  172  A    between atoms: _458  and  _461
REMARK  173  A    between atoms: _461  and  _462
REMARK  174  A    between atoms: _472  and  _474
REMARK  175  A    between atoms: _474  and  _475
REMARK  176  A    between atoms: _474  and  _477
REMARK  177  A    between atoms: _477  and  _478
REMARK  178  A    between atoms: _478  and  _479
REMARK  179  A    between atoms: _479  and  _480
REMARK  180  A    between atoms: _480  and  _481
REMARK  181  A    between atoms: _485  and  _487
REMARK  182  A    between atoms: _487  and  _488
REMARK  183  A    between atoms: _487  and  _490
REMARK  184  A    between atoms: _490  and  _491
REMARK  185  A    between atoms: _497  and  _499
REMARK  186  A    between atoms: _499  and  _500
REMARK  187  A    between atoms: _499  and  _502
REMARK  188  A    between atoms: _502  and  _503
REMARK  189  A    between atoms: _509  and  _511
REMARK  190  A    between atoms: _511  and  _512
REMARK  191  A    between atoms: _511  and  _514
REMARK  192  A    between atoms: _514  and  _515
REMARK  193  A    between atoms: _515  and  _516
REMARK  194  A    between atoms: _521  and  _523
REMARK  195  A    between atoms: _523  and  _524
REMARK  196  A    between atoms: _527  and  _529
REMARK  197  A    between atoms: _529  and  _530
REMARK  198  A    between atoms: _529  and  _532
REMARK  199  A    between atoms: _532  and  _533
REMARK  200  A    between atoms: _535  and  _537
REMARK  201  A    between atoms: _537  and  _538
REMARK  202  A    between atoms: _540  and  _542
REMARK  203  A    between atoms: _542  and  _543
REMARK  204  A    between atoms: _542  and  _545
REMARK  205  A    between atoms: _545  and  _546
REMARK  206  A    between atoms: _546  and  _547
REMARK  207  A    between atoms: _553  and  _554
REMARK  208  A    between atoms: _559  and  _561
REMARK  209  A    between atoms: _561  and  _562
REMARK  210  A    between atoms: _561  and  _564
REMARK  211  A    between atoms: _564  and  _565
REMARK  212  A    between atoms: _570  and  _571
REMARK  213  A    between atoms: _573  and  _575
REMARK  214  A    between atoms: _575  and  _576
REMARK  215  A    between atoms: _575  and  _578
REMARK  216  A    between atoms: _578  and  _579
REMARK  217  A    between atoms: _579  and  _580
REMARK  218  A    between atoms: _580  and  _581
REMARK  219  A    between atoms: _590  and  _592
REMARK  220  A    between atoms: _592  and  _593
REMARK  221  A    between atoms: _592  and  _595
REMARK  222  A    between atoms: _595  and  _596
REMARK  223  A    between atoms: _601  and  _602
REMARK  224  A    between atoms: _604  and  _606
REMARK  225  A    between atoms: _606  and  _607
REMARK  226  A    between atoms: _606  and  _609
REMARK  227  A    between atoms: _609  and  _610
REMARK  228  A    between atoms: _610  and  _611
REMARK  229  A    between atoms: _614  and  _616
REMARK  230  A    between atoms: _616  and  _617
REMARK  231  A    between atoms: _616  and  _619
REMARK  232  A    between atoms: _619  and  _620
REMARK  233  A    between atoms: _620  and  _621
REMARK  234  A    between atoms: _621  and  _622
REMARK                            x       y       z     vdW  Elec       q    Type
REMARK                         _______ _______ _______ _____ _____    ______ ____
ROOT
ATOM      1  C   GLY A   5       6.971  22.370  14.531  0.00  0.00    +0.243 C 
ATOM      2  N   TRP A   6       7.374  21.211  15.048  0.00  0.00    -0.297 N 
ATOM      3  H   TRP A   6       7.005  20.319  14.661  0.00  0.00    +0.150 HD
ATOM      4  O   GLY A   5       7.425  23.458  14.902  0.00  0.00    -0.273 OA
ENDROOT
BRANCH   2   5
ATOM      5  CA  TRP A   6       8.342  21.178  16.169  0.00  0.00    +0.153 C 
BRANCH   5   6
ATOM      6  C   TRP A   6       9.750  21.580  15.737  0.00  0.00    +0.241 C 
ATOM      7  O   TRP A   6      10.540  22.018  16.565  0.00  0.00    -0.273 OA
ATOM      8  N   LYS A   7      10.058  21.461  14.438  0.00  0.00    -0.297 N 
ATOM      9  H   LYS A   7       9.403  20.975  13.792  0.00  0.00    +0.150 HD
BRANCH   8  10
ATOM     10  CA  LYS A   7      11.314  22.013  13.925  0.00  0.00    +0.149 C 
BRANCH  10  11
ATOM     11  C   LYS A   7      11.385  23.496  14.226  0.00  0.00    +0.241 C 
ATOM     12  O   LYS A   7      12.438  24.017  14.625  0.00  0.00    -0.273 OA
ATOM     13  N   VAL A   8      10.271  24.188  13.970  0.00  0.00    -0.298 N 
ATOM     14  H   VAL A   8       9.422  23.685  13.641  0.00  0.00    +0.150 HD
BRANCH  13  15
ATOM     15  CA  VAL A   8      10.223  25.628  14.143  0.00  0.00    +0.137 C 
BRANCH  15  16
ATOM     16  CB  VAL A   8       8.963  26.219  13.501  0.00  0.00    +0.026 C 
ATOM     17  CG2 VAL A   8       8.923  27.721  13.697  0.00  0.00    +0.002 C 
ATOM     18  CG1 VAL A   8       8.970  25.889  11.978  0.00  0.00    +0.002 C 
ENDBRANCH  15  16
BRANCH  15  19
ATOM     19  C   VAL A   8      10.239  25.971  15.634  0.00  0.00    +0.227 C 
ATOM     20  O   VAL A   8      10.930  26.883  16.042  0.00  0.00    -0.286 OA
ENDBRANCH  15  19
ENDBRANCH  13  15
ENDBRANCH  10  11
BRANCH  10  21
ATOM     21  CB  LYS A   7      11.403  21.902  12.393  0.00  0.00    +0.029 C 
BRANCH  21  22
ATOM     22  CG  LYS A   7      11.311  20.473  11.820  0.00  0.00    +0.000 C 
BRANCH  22  23
ATOM     23  CD  LYS A   7      11.258  20.626  10.282  0.00  0.00    -0.024 C 
BRANCH  23  24
ATOM     24  CE  LYS A   7      10.761  19.347   9.582  0.00  0.00    -0.086 C 
BRANCH  24  25
ATOM     25  NZ  LYS A   7      10.581  19.649   8.106  0.00  0.00    +0.380 N 
ATOM     26  HZ1 LYS A   7       9.883  20.412   7.992  0.00  0.00    -0.089 HD
ATOM     27  HZ2 LYS A   7      11.491  19.947   7.701  0.00  0.00    -0.089 HD
ATOM     28  HZ3 LYS A   7      10.245  18.795   7.617  0.00  0.00    -0.089 HD
ENDBRANCH  24  25
ENDBRANCH  23  24
ENDBRANCH  22  23
ENDBRANCH  21  22
ENDBRANCH  10  21
ENDBRANCH   8  10
ENDBRANCH   5   6
BRANCH   5  29
ATOM     29  CB  TRP A   6       8.308  19.804  16.890  0.00  0.00    +0.057 C 
BRANCH  29  30
ATOM     30  CG  TRP A   6       6.953  19.666  17.543  0.00  0.00    -0.002 A 
ATOM     31  CD2 TRP A   6       6.501  20.353  18.732  0.00  0.00    +0.013 A 
ATOM     32  CE3 TRP A   6       7.123  21.197  19.665  0.00  0.00    +0.001 A 
ATOM     33  CZ3 TRP A   6       6.360  21.679  20.751  0.00  0.00    +0.000 A 
ATOM     34  CH2 TRP A   6       5.011  21.330  20.899  0.00  0.00    +0.001 A 
ATOM     35  CZ2 TRP A   6       4.389  20.489  20.013  0.00  0.00    +0.017 A 
ATOM     36  CE2 TRP A   6       5.146  19.996  18.933  0.00  0.00    +0.056 A 
ATOM     37  NE1 TRP A   6       4.779  19.163  17.902  0.00  0.00    -0.352 N 
ATOM     38  HE1 TRP A   6       3.837  18.741  17.777  0.00  0.00    +0.166 HD
ATOM     39  CD1 TRP A   6       5.858  18.974  17.057  0.00  0.00    +0.068 A 
ENDBRANCH  29  30
ENDBRANCH   5  29
ENDBRANCH   2   5
BRANCH   1  40
ATOM     40  CA  GLY A   5       5.886  22.308  13.462  0.00  0.00    +0.176 C 
BRANCH  40  42
ATOM     41  C   ASN A   4       6.799  20.568  12.116  0.00  0.00    +0.241 C 
ATOM     42  N   GLY A   5       5.773  20.997  12.837  0.00  0.00    -0.295 N 
ATOM     43  H   GLY A   5       4.917  20.418  12.953  0.00  0.00    +0.150 HD
ATOM     44  O   ASN A   4       7.806  21.258  11.952  0.00  0.00    -0.273 OA
BRANCH  41  45
ATOM     45  CA  ASN A   4       6.692  19.188  11.459  0.00  0.00    +0.158 C 
BRANCH  45  48
ATOM     46  C   PRO A   3       6.542  17.695  13.345  0.00  0.00    +0.241 C 
ATOM     47  O   PRO A   3       7.318  18.380  14.006  0.00  0.00    -0.273 OA
ATOM     48  N   ASN A   4       6.013  18.128  12.194  0.00  0.00    -0.297 N 
ATOM     49  H   ASN A   4       5.131  17.714  11.830  0.00  0.00    +0.150 HD
BRANCH  46  53
ATOM     50  C   GLY A   2       3.811  16.413  14.191  0.00  0.00    +0.246 C 
ATOM     51  O   GLY A   2       3.986  17.360  14.960  0.00  0.00    -0.273 OA
ATOM     52  N   PRO A   3       4.817  15.860  13.498  0.00  0.00    -0.272 N 
ATOM     53  CA  PRO A   3       6.186  16.308  13.826  0.00  0.00    +0.152 C 
ATOM     54  CB  PRO A   3       7.068  15.254  13.105  0.00  0.00    +0.031 C 
ATOM     55  CG  PRO A   3       6.205  14.019  13.138  0.00  0.00    +0.024 C 
ATOM     56  CD  PRO A   3       4.820  14.559  12.813  0.00  0.00    +0.094 C 
BRANCH  50  57
ATOM     57  CA  GLY A   2       2.420  15.818  14.000  0.00  0.00    +0.176 C 
BRANCH  57  60
ATOM     58  C   VAL A   1       2.094  14.998  16.269  0.00  0.00    +0.238 C 
ATOM     59  O   VAL A   1       3.158  14.378  16.236  0.00  0.00    -0.274 OA
ATOM     60  N   GLY A   2       1.676  15.756  15.261  0.00  0.00    -0.296 N 
ATOM     61  H   GLY A   2       0.806  16.315  15.369  0.00  0.00    +0.150 HD
BRANCH  58  62
ATOM     62  CA  VAL A   1       1.186  14.911  17.503  0.00  0.00    +0.145 C 
BRANCH  62  63
ATOM     63  CB  VAL A   1       0.044  13.924  17.204  0.00  0.00    +0.025 C 
ATOM     64  CG2 VAL A   1      -0.841  13.739  18.444  0.00  0.00    +0.002 C 
ATOM     65  CG1 VAL A   1       0.624  12.574  16.749  0.00  0.00    +0.002 C 
ENDBRANCH  62  63
BRANCH  62  66
ATOM     66  N   VAL A   1       0.677  16.221  17.912  0.00  0.00    -0.238 NA
ATOM     67  H   VAL A   1      -0.210  16.579  17.503  0.00  0.00    +0.142 HD
ENDBRANCH  62  66
ENDBRANCH  58  62
ENDBRANCH  57  60
ENDBRANCH  50  57
ENDBRANCH  46  53
ENDBRANCH  45  48
BRANCH  45  68
ATOM     68  CB  ASN A   4       6.094  19.303  10.052  0.00  0.00    +0.114 C 
BRANCH  68  69
ATOM     69  CG  ASN A   4       6.499  18.141   9.188  0.00  0.00    +0.222 C 
ATOM     70  OD1 ASN A   4       7.689  17.870   9.049  0.00  0.00    -0.275 OA
ATOM     71  ND2 ASN A   4       5.535  17.400   8.691  0.00  0.00    -0.329 N 
ATOM     72 HD21 ASN A   4       4.542  17.673   8.836  0.00  0.00    +0.145 HD
ATOM     73 HD22 ASN A   4       5.765  16.541   8.152  0.00  0.00    +0.145 HD
ENDBRANCH  68  69
ENDBRANCH  45  68
ENDBRANCH  41  45
ENDBRANCH  40  42
ENDBRANCH   1  40
TORSDOF 26
REMARK  Name = ../refined-set-2016/4f0c/4f0c_pocket.pdb
REMARK  234 active torsions:
REMARK  status: ('A' for Active; 'I' for Inactive)
REMARK    1  A    between atoms: _1  and  _3
REMARK    2  A    between atoms: _3  and  _4
REMARK    3  A    between atoms: _3  and  _6
REMARK    4  A    between atoms: _6  and  _7
REMARK    5  A    between atoms: _12  and  _14
REMARK    6  A    between atoms: _14  and  _15
REMARK    7  A    between atoms: _14  and  _17
REMARK    8  A    between atoms: _17  and  _18
REMARK    9  A    between atoms: _23  and  _25
REMARK   10  A    between atoms: _25  and  _26
REMARK   11  A    between atoms: _25  and  _28
REMARK   12  A    between atoms: _31  and  _33
REMARK   13  A    between atoms: _33  and  _34
REMARK   14  A    between atoms: _37  and  _38
REMARK   15  A    between atoms: _43  and  _45
REMARK   16  A    between atoms: _45  and  _46
REMARK   17  A    between atoms: _45  and  _48
REMARK   18  A    between atoms: _48  and  _49
REMARK   19  A    between atoms: _54  and  _56
REMARK   20  A    between atoms: _56  and  _57
REMARK   21  A    between atoms: _59  and  _61
REMARK   22  A    between atoms: _61  and  _62
REMARK   23  A    between atoms: _61  and  _64
REMARK   24  A    between atoms: _64  and  _65
REMARK   25  A    between atoms: _75  and  _77
REMARK   26  A    between atoms: _77  and  _78
REMARK   27  A    between atoms: _77  and  _80
REMARK   28  A    between atoms: _80  and  _81
REMARK   29  A    between atoms: _81  and  _82
REMARK   30  A    between atoms: _82  and  _83
REMARK   31  A    between atoms: _83  and  _84
REMARK   32  A    between atoms: _88  and  _90
REMARK   33  A    between atoms: _90  and  _91
REMARK   34  A    between atoms: _90  and  _93
REMARK   35  A    between atoms: _96  and  _98
REMARK   36  A    between atoms: _98  and  _99
REMARK   37  A    between atoms: _98  and  _101
REMARK   38  A    between atoms: _104  and  _106
REMARK   39  A    between atoms: _106  and  _107
REMARK   40  A    between atoms: _106  and  _109
REMARK   41  A    between atoms: _109  and  _110
REMARK   42  A    between atoms: _113  and  _115
REMARK   43  A    between atoms: _115  and  _116
REMARK   44  A    between atoms: _118  and  _120
REMARK   45  A    between atoms: _120  and  _121
REMARK   46  A    between atoms: _120  and  _123
REMARK   47  A    between atoms: _123  and  _124
REMARK   48  A    between atoms: _124  and  _125
REMARK   49  A    between atoms: _125  and  _126
REMARK   50  A    between atoms: _135  and  _137
REMARK   51  A    between atoms: _137  and  _138
REMARK   52  A    between atoms: _137  and  _140
REMARK   53  A    between atoms: _140  and  _141
REMARK   54  A    between atoms: _146  and  _148
REMARK   55  A    between atoms: _148  and  _149
REMARK   56  A    between atoms: _148  and  _151
REMARK   57  A    between atoms: _151  and  _152
REMARK   58  A    between atoms: _152  and  _153
REMARK   59  A    between atoms: _153  and  _154
REMARK   60  A    between atoms: _154  and  _155
REMARK   61  A    between atoms: _159  and  _161
REMARK   62  A    between atoms: _161  and  _162
REMARK   63  A    between atoms: _161  and  _164
REMARK   64  A    between atoms: _164  and  _165
REMARK   65  A    between atoms: _171  and  _173
REMARK   66  A    between atoms: _173  and  _174
REMARK   67  A    between atoms: _173  and  _176
REMARK   68  A    between atoms: _176  and  _177
REMARK   69  A    between atoms: _182  and  _184
REMARK   70  A    between atoms: _184  and  _185
REMARK   71  A    between atoms: _184  and  _187
REMARK   72  A    between atoms: _187  and  _188
REMARK   73  A    between atoms: _193  and  _195
REMARK   74  A    between atoms: _195  and  _196
REMARK   75  A    between atoms: _198  and  _200
REMARK   76  A    between atoms: _200  and  _201
REMARK   77  A    between atoms: _200  and  _203
REMARK   78  A    between atoms: _203  and  _204
REMARK   79  A    between atoms: _204  and  _205
REMARK   80  A    between atoms: _205  and  _206
REMARK   81  A    between atoms: _215  and  _217
REMARK   82  A    between atoms: _217  and  _218
REMARK   83  A    between atoms: _217  and  _220
REMARK   84  A    between atoms: _220  and  _221
REMARK   85  A    between atoms: _225  and  _226
REMARK   86  A    between atoms: _231  and  _233
REMARK   87  A    between atoms: _233  and  _234
REMARK   88  A    between atoms: _237  and  _239
REMARK   89  A    between atoms: _239  and  _240
REMARK   90  A    between atoms: _239  and  _242
REMARK   91  A    between atoms: _242  and  _243
REMARK   92  A    between atoms: _253  and  _255
REMARK   93  A    between atoms: _255  and  _256
REMARK   94  A    between atoms: _255  and  _258
REMARK   95  A    between atoms: _258  and  _259
REMARK   96  A    between atoms: _259  and  _260
REMARK   97  A    between atoms: _263  and  _265
REMARK   98  A    between atoms: _265  and  _266
REMARK   99  A    between atoms: _265  and  _268
REMARK  100  A    between atoms: _268  and  _269
REMARK  101  A    between atoms: _271  and  _273
REMARK  102  A    between atoms: _273  and  _274
REMARK  103  A    between atoms: _273  and  _276
REMARK  104  A    between atoms: _276  and  _277
REMARK  105  A    between atoms: _280  and  _282
REMARK  106  A    between atoms: _282  and  _283
REMARK  107  A    between atoms: _286  and  _288
REMARK  108  A    between atoms: _288  and  _289
REMARK  109  A    between atoms: _288  and  _291
REMARK  110  A    between atoms: _291  and  _292
REMARK  111  A    between atoms: _295  and  _297
REMARK  112  A    between atoms: _297  and  _298
REMARK  113  A    between atoms: _297  and  _300
REMARK  114  A    between atoms: _300  and  _301
REMARK  115  A    between atoms: _301  and  _302
REMARK  116  A    between atoms: _307  and  _309
REMARK  117  A    between atoms: _309  and  _310
REMARK  118  A    between atoms: _313  and  _315
REMARK  119  A    between atoms: _315  and  _316
REMARK  120  A    between atoms: _315  and  _318
REMARK  121  A    between atoms: _318  and  _319
REMARK  122  A    between atoms: _321  and  _323
REMARK  123  A    between atoms: _323  and  _324
REMARK  124  A    between atoms: _326  and  _328
REMARK  125  A    between atoms: _328  and  _329
REMARK  126  A    between atoms: _328  and  _331
REMARK  127  A    between atoms: _331  and  _332
REMARK  128  A    between atoms: _332  and  _333
REMARK  129  A    between atoms: _338  and  _340
REMARK  130  A    between atoms: _340  and  _341
REMARK  131  A    between atoms: _344  and  _345
REMARK  132  A    between atoms: _350  and  _352
REMARK  133  A    between atoms: _352  and  _353
REMARK  134  A    between atoms: _352  and  _355
REMARK  135  A    between atoms: _355  and  _356
REMARK  136  A    between atoms: _361  and  _362
REMARK  137  A    between atoms: _364  and  _366
REMARK  138  A    between atoms: _366  and  _367
REMARK  139  A    between atoms: _366  and  _369
REMARK  140  A    between atoms: _369  and  _370
REMARK  141  A    between atoms: _376  and  _378
REMARK  142  A    between atoms: _378  and  _379
REMARK  143  A    between atoms: _381  and  _383
REMARK  144  A    between atoms: _383  and  _384
REMARK  145  A    between atoms: _383  and  _386
REMARK  146  A    between atoms: _386  and  _387
REMARK  147  A    between atoms: _387  and  _388
REMARK  148  A    between atoms: _393  and  _395
REMARK  149  A    between atoms: _395  and  _396
REMARK  150  A    between atoms: _399  and  _401
REMARK  151  A    between atoms: _401  and  _402
REMARK  152  A    between atoms: _404  and  _406
REMARK  153  A    between atoms: _406  and  _407
REMARK  154  A    between atoms: _406  and  _409
REMARK  155  A    between atoms: _409  and  _410
REMARK  156  A    between atoms: _420  and  _422
REMARK  157  A    between atoms: _422  and  _423
REMARK  158  A    between atoms: _422  and  _425
REMARK  159  A    between atoms: _425  and  _426
REMARK  160  A    between atoms: _432  and  _434
REMARK  161  A    between atoms: _434  and  _435
REMARK  162  A    between atoms: _434  and  _437
REMARK  163  A    between atoms: _440  and  _442
REMARK  164  A    between atoms: _442  and  _443
REMARK  165  A    between atoms: _446  and  _448
REMARK  166  A    between atoms: _448  and  _449
REMARK  167  A    between atoms: _448  and  _451
REMARK  168  A    between atoms: _451  and  _452
REMARK  169  A    between atoms: _452  and  _453
REMARK  170  A    between atoms: _456  and  _458
REMARK  171  A    between atoms: _458  and  _459
REMARK  172  A    between atoms: _458  and  _461
REMARK  173  A    between atoms: _461  and  _462
REMARK  174  A    between atoms: _472  and  _474
REMARK  175  A    between atoms: _474  and  _475
REMARK  176  A    between atoms: _474  and  _477
REMARK  177  A    between atoms: _477  and  _478
REMARK  178  A    between atoms: _478  and  _479
REMARK  179  A    between atoms: _479  and  _480
REMARK  180  A    between atoms: _480  and  _481
REMARK  181  A    between atoms: _485  and  _487
REMARK  182  A    between atoms: _487  and  _488
REMARK  183  A    between atoms: _487  and  _490
REMARK  184  A    between atoms: _490  and  _491
REMARK  185  A    between atoms: _497  and  _499
REMARK  186  A    between atoms: _499  and  _500
REMARK  187  A    between atoms: _499  and  _502
REMARK  188  A    between atoms: _502  and  _503
REMARK  189  A    between atoms: _509  and  _511
REMARK  190  A    between atoms: _511  and  _512
REMARK  191  A    between atoms: _511  and  _514
REMARK  192  A    between atoms: _514  and  _515
REMARK  193  A    between atoms: _515  and  _516
REMARK  194  A    between atoms: _521  and  _523
REMARK  195  A    between atoms: _523  and  _524
REMARK  196  A    between atoms: _527  and  _529
REMARK  197  A    between atoms: _529  and  _530
REMARK  198  A    between atoms: _529  and  _532
REMARK  199  A    between atoms: _532  and  _533
REMARK  200  A    between atoms: _535  and  _537
REMARK  201  A    between atoms: _537  and  _538
REMARK  202  A    between atoms: _540  and  _542
REMARK  203  A    between atoms: _542  and  _543
REMARK  204  A    between atoms: _542  and  _545
REMARK  205  A    between atoms: _545  and  _546
REMARK  206  A    between atoms: _546  and  _547
REMARK  207  A    between atoms: _553  and  _554
REMARK  208  A    between atoms: _559  and  _561
REMARK  209  A    between atoms: _561  and  _562
REMARK  210  A    between atoms: _561  and  _564
REMARK  211  A    between atoms: _564  and  _565
REMARK  212  A    between atoms: _570  and  _571
REMARK  213  A    between atoms: _573  and  _575
REMARK  214  A    between atoms: _575  and  _576
REMARK  215  A    between atoms: _575  and  _578
REMARK  216  A    between atoms: _578  and  _579
REMARK  217  A    between atoms: _579  and  _580
REMARK  218  A    between atoms: _580  and  _581
REMARK  219  A    between atoms: _590  and  _592
REMARK  220  A    between atoms: _592  and  _593
REMARK  221  A    between atoms: _592  and  _595
REMARK  222  A    between atoms: _595  and  _596
REMARK  223  A    between atoms: _601  and  _602
REMARK  224  A    between atoms: _604  and  _606
REMARK  225  A    between atoms: _606  and  _607
REMARK  226  A    between atoms: _606  and  _609
REMARK  227  A    between atoms: _609  and  _610
REMARK  228  A    between atoms: _610  and  _611
REMARK  229  A    between atoms: _614  and  _616
REMARK  230  A    between atoms: _616  and  _617
REMARK  231  A    between atoms: _616  and  _619
REMARK  232  A    between atoms: _619  and  _620
REMARK  233  A    between atoms: _620  and  _621
REMARK  234  A    between atoms: _621  and  _622
REMARK                            x       y       z     vdW  Elec       q    Type
REMARK                         _______ _______ _______ _____ _____    ______ ____
ROOT
ATOM      1  CA  VAL A   1      -4.827  23.673  14.854  0.00  0.00    +0.133 C 
ENDROOT
BRANCH   1   2
ATOM      2  CB  VAL A   1      -4.269  23.877  13.440  0.00  0.00    +0.023 C 
ATOM      3  CG2 VAL A   1      -3.533  25.206  13.361  0.00  0.00    +0.002 C 
ATOM      4  CG1 VAL A   1      -5.389  23.819  12.416  0.00  0.00    +0.002 C 
ENDBRANCH   1   2
BRANCH   1   5
ATOM      5  N   VAL A   1      -3.757  23.748  15.831  0.00  0.00    -0.239 NA
ATOM      6  H   VAL A   1      -2.784  23.565  15.514  0.00  0.00    +0.142 HD
ENDBRANCH   1   5
BRANCH   1   7
ATOM      7  C   VAL A   1      -5.395  22.281  14.977  0.00  0.00    +0.224 C 
ATOM      8  O   VAL A   1      -4.658  21.292  14.996  0.00  0.00    -0.287 OA
ENDBRANCH   1   7
TORSDOF 3
REMARK  Name = ../refined-set-2016/4f0c/4f0c_pocket.pdb
REMARK  234 active torsions:
REMARK  status: ('A' for Active; 'I' for Inactive)
REMARK    1  A    between atoms: _1  and  _3
REMARK    2  A    between atoms: _3  and  _4
REMARK    3  A    between atoms: _3  and  _6
REMARK    4  A    between atoms: _6  and  _7
REMARK    5  A    between atoms: _12  and  _14
REMARK    6  A    between atoms: _14  and  _15
REMARK    7  A    between atoms: _14  and  _17
REMARK    8  A    between atoms: _17  and  _18
REMARK    9  A    between atoms: _23  and  _25
REMARK   10  A    between atoms: _25  and  _26
REMARK   11  A    between atoms: _25  and  _28
REMARK   12  A    between atoms: _31  and  _33
REMARK   13  A    between atoms: _33  and  _34
REMARK   14  A    between atoms: _37  and  _38
REMARK   15  A    between atoms: _43  and  _45
REMARK   16  A    between atoms: _45  and  _46
REMARK   17  A    between atoms: _45  and  _48
REMARK   18  A    between atoms: _48  and  _49
REMARK   19  A    between atoms: _54  and  _56
REMARK   20  A    between atoms: _56  and  _57
REMARK   21  A    between atoms: _59  and  _61
REMARK   22  A    between atoms: _61  and  _62
REMARK   23  A    between atoms: _61  and  _64
REMARK   24  A    between atoms: _64  and  _65
REMARK   25  A    between atoms: _75  and  _77
REMARK   26  A    between atoms: _77  and  _78
REMARK   27  A    between atoms: _77  and  _80
REMARK   28  A    between atoms: _80  and  _81
REMARK   29  A    between atoms: _81  and  _82
REMARK   30  A    between atoms: _82  and  _83
REMARK   31  A    between atoms: _83  and  _84
REMARK   32  A    between atoms: _88  and  _90
REMARK   33  A    between atoms: _90  and  _91
REMARK   34  A    between atoms: _90  and  _93
REMARK   35  A    between atoms: _96  and  _98
REMARK   36  A    between atoms: _98  and  _99
REMARK   37  A    between atoms: _98  and  _101
REMARK   38  A    between atoms: _104  and  _106
REMARK   39  A    between atoms: _106  and  _107
REMARK   40  A    between atoms: _106  and  _109
REMARK   41  A    between atoms: _109  and  _110
REMARK   42  A    between atoms: _113  and  _115
REMARK   43  A    between atoms: _115  and  _116
REMARK   44  A    between atoms: _118  and  _120
REMARK   45  A    between atoms: _120  and  _121
REMARK   46  A    between atoms: _120  and  _123
REMARK   47  A    between atoms: _123  and  _124
REMARK   48  A    between atoms: _124  and  _125
REMARK   49  A    between atoms: _125  and  _126
REMARK   50  A    between atoms: _135  and  _137
REMARK   51  A    between atoms: _137  and  _138
REMARK   52  A    between atoms: _137  and  _140
REMARK   53  A    between atoms: _140  and  _141
REMARK   54  A    between atoms: _146  and  _148
REMARK   55  A    between atoms: _148  and  _149
REMARK   56  A    between atoms: _148  and  _151
REMARK   57  A    between atoms: _151  and  _152
REMARK   58  A    between atoms: _152  and  _153
REMARK   59  A    between atoms: _153  and  _154
REMARK   60  A    between atoms: _154  and  _155
REMARK   61  A    between atoms: _159  and  _161
REMARK   62  A    between atoms: _161  and  _162
REMARK   63  A    between atoms: _161  and  _164
REMARK   64  A    between atoms: _164  and  _165
REMARK   65  A    between atoms: _171  and  _173
REMARK   66  A    between atoms: _173  and  _174
REMARK   67  A    between atoms: _173  and  _176
REMARK   68  A    between atoms: _176  and  _177
REMARK   69  A    between atoms: _182  and  _184
REMARK   70  A    between atoms: _184  and  _185
REMARK   71  A    between atoms: _184  and  _187
REMARK   72  A    between atoms: _187  and  _188
REMARK   73  A    between atoms: _193  and  _195
REMARK   74  A    between atoms: _195  and  _196
REMARK   75  A    between atoms: _198  and  _200
REMARK   76  A    between atoms: _200  and  _201
REMARK   77  A    between atoms: _200  and  _203
REMARK   78  A    between atoms: _203  and  _204
REMARK   79  A    between atoms: _204  and  _205
REMARK   80  A    between atoms: _205  and  _206
REMARK   81  A    between atoms: _215  and  _217
REMARK   82  A    between atoms: _217  and  _218
REMARK   83  A    between atoms: _217  and  _220
REMARK   84  A    between atoms: _220  and  _221
REMARK   85  A    between atoms: _225  and  _226
REMARK   86  A    between atoms: _231  and  _233
REMARK   87  A    between atoms: _233  and  _234
REMARK   88  A    between atoms: _237  and  _239
REMARK   89  A    between atoms: _239  and  _240
REMARK   90  A    between atoms: _239  and  _242
REMARK   91  A    between atoms: _242  and  _243
REMARK   92  A    between atoms: _253  and  _255
REMARK   93  A    between atoms: _255  and  _256
REMARK   94  A    between atoms: _255  and  _258
REMARK   95  A    between atoms: _258  and  _259
REMARK   96  A    between atoms: _259  and  _260
REMARK   97  A    between atoms: _263  and  _265
REMARK   98  A    between atoms: _265  and  _266
REMARK   99  A    between atoms: _265  and  _268
REMARK  100  A    between atoms: _268  and  _269
REMARK  101  A    between atoms: _271  and  _273
REMARK  102  A    between atoms: _273  and  _274
REMARK  103  A    between atoms: _273  and  _276
REMARK  104  A    between atoms: _276  and  _277
REMARK  105  A    between atoms: _280  and  _282
REMARK  106  A    between atoms: _282  and  _283
REMARK  107  A    between atoms: _286  and  _288
REMARK  108  A    between atoms: _288  and  _289
REMARK  109  A    between atoms: _288  and  _291
REMARK  110  A    between atoms: _291  and  _292
REMARK  111  A    between atoms: _295  and  _297
REMARK  112  A    between atoms: _297  and  _298
REMARK  113  A    between atoms: _297  and  _300
REMARK  114  A    between atoms: _300  and  _301
REMARK  115  A    between atoms: _301  and  _302
REMARK  116  A    between atoms: _307  and  _309
REMARK  117  A    between atoms: _309  and  _310
REMARK  118  A    between atoms: _313  and  _315
REMARK  119  A    between atoms: _315  and  _316
REMARK  120  A    between atoms: _315  and  _318
REMARK  121  A    between atoms: _318  and  _319
REMARK  122  A    between atoms: _321  and  _323
REMARK  123  A    between atoms: _323  and  _324
REMARK  124  A    between atoms: _326  and  _328
REMARK  125  A    between atoms: _328  and  _329
REMARK  126  A    between atoms: _328  and  _331
REMARK  127  A    between atoms: _331  and  _332
REMARK  128  A    between atoms: _332  and  _333
REMARK  129  A    between atoms: _338  and  _340
REMARK  130  A    between atoms: _340  and  _341
REMARK  131  A    between atoms: _344  and  _345
REMARK  132  A    between atoms: _350  and  _352
REMARK  133  A    between atoms: _352  and  _353
REMARK  134  A    between atoms: _352  and  _355
REMARK  135  A    between atoms: _355  and  _356
REMARK  136  A    between atoms: _361  and  _362
REMARK  137  A    between atoms: _364  and  _366
REMARK  138  A    between atoms: _366  and  _367
REMARK  139  A    between atoms: _366  and  _369
REMARK  140  A    between atoms: _369  and  _370
REMARK  141  A    between atoms: _376  and  _378
REMARK  142  A    between atoms: _378  and  _379
REMARK  143  A    between atoms: _381  and  _383
REMARK  144  A    between atoms: _383  and  _384
REMARK  145  A    between atoms: _383  and  _386
REMARK  146  A    between atoms: _386  and  _387
REMARK  147  A    between atoms: _387  and  _388
REMARK  148  A    between atoms: _393  and  _395
REMARK  149  A    between atoms: _395  and  _396
REMARK  150  A    between atoms: _399  and  _401
REMARK  151  A    between atoms: _401  and  _402
REMARK  152  A    between atoms: _404  and  _406
REMARK  153  A    between atoms: _406  and  _407
REMARK  154  A    between atoms: _406  and  _409
REMARK  155  A    between atoms: _409  and  _410
REMARK  156  A    between atoms: _420  and  _422
REMARK  157  A    between atoms: _422  and  _423
REMARK  158  A    between atoms: _422  and  _425
REMARK  159  A    between atoms: _425  and  _426
REMARK  160  A    between atoms: _432  and  _434
REMARK  161  A    between atoms: _434  and  _435
REMARK  162  A    between atoms: _434  and  _437
REMARK  163  A    between atoms: _440  and  _442
REMARK  164  A    between atoms: _442  and  _443
REMARK  165  A    between atoms: _446  and  _448
REMARK  166  A    between atoms: _448  and  _449
REMARK  167  A    between atoms: _448  and  _451
REMARK  168  A    between atoms: _451  and  _452
REMARK  169  A    between atoms: _452  and  _453
REMARK  170  A    between atoms: _456  and  _458
REMARK  171  A    between atoms: _458  and  _459
REMARK  172  A    between atoms: _458  and  _461
REMARK  173  A    between atoms: _461  and  _462
REMARK  174  A    between atoms: _472  and  _474
REMARK  175  A    between atoms: _474  and  _475
REMARK  176  A    between atoms: _474  and  _477
REMARK  177  A    between atoms: _477  and  _478
REMARK  178  A    between atoms: _478  and  _479
REMARK  179  A    between atoms: _479  and  _480
REMARK  180  A    between atoms: _480  and  _481
REMARK  181  A    between atoms: _485  and  _487
REMARK  182  A    between atoms: _487  and  _488
REMARK  183  A    between atoms: _487  and  _490
REMARK  184  A    between atoms: _490  and  _491
REMARK  185  A    between atoms: _497  and  _499
REMARK  186  A    between atoms: _499  and  _500
REMARK  187  A    between atoms: _499  and  _502
REMARK  188  A    between atoms: _502  and  _503
REMARK  189  A    between atoms: _509  and  _511
REMARK  190  A    between atoms: _511  and  _512
REMARK  191  A    between atoms: _511  and  _514
REMARK  192  A    between atoms: _514  and  _515
REMARK  193  A    between atoms: _515  and  _516
REMARK  194  A    between atoms: _521  and  _523
REMARK  195  A    between atoms: _523  and  _524
REMARK  196  A    between atoms: _527  and  _529
REMARK  197  A    between atoms: _529  and  _530
REMARK  198  A    between atoms: _529  and  _532
REMARK  199  A    between atoms: _532  and  _533
REMARK  200  A    between atoms: _535  and  _537
REMARK  201  A    between atoms: _537  and  _538
REMARK  202  A    between atoms: _540  and  _542
REMARK  203  A    between atoms: _542  and  _543
REMARK  204  A    between atoms: _542  and  _545
REMARK  205  A    between atoms: _545  and  _546
REMARK  206  A    between atoms: _546  and  _547
REMARK  207  A    between atoms: _553  and  _554
REMARK  208  A    between atoms: _559  and  _561
REMARK  209  A    between atoms: _561  and  _562
REMARK  210  A    between atoms: _561  and  _564
REMARK  211  A    between atoms: _564  and  _565
REMARK  212  A    between atoms: _570  and  _571
REMARK  213  A    between atoms: _573  and  _575
REMARK  214  A    between atoms: _575  and  _576
REMARK  215  A    between atoms: _575  and  _578
REMARK  216  A    between atoms: _578  and  _579
REMARK  217  A    between atoms: _579  and  _580
REMARK  218  A    between atoms: _580  and  _581
REMARK  219  A    between atoms: _590  and  _592
REMARK  220  A    between atoms: _592  and  _593
REMARK  221  A    between atoms: _592  and  _595
REMARK  222  A    between atoms: _595  and  _596
REMARK  223  A    between atoms: _601  and  _602
REMARK  224  A    between atoms: _604  and  _606
REMARK  225  A    between atoms: _606  and  _607
REMARK  226  A    between atoms: _606  and  _609
REMARK  227  A    between atoms: _609  and  _610
REMARK  228  A    between atoms: _610  and  _611
REMARK  229  A    between atoms: _614  and  _616
REMARK  230  A    between atoms: _616  and  _617
REMARK  231  A    between atoms: _616  and  _619
REMARK  232  A    between atoms: _619  and  _620
REMARK  233  A    between atoms: _620  and  _621
REMARK  234  A    between atoms: _621  and  _622
REMARK                            x       y       z     vdW  Elec       q    Type
REMARK                         _______ _______ _______ _____ _____    ______ ____
ROOT
ATOM      1  CA  LEU A   1      -7.014  18.498  12.331  0.00  0.00    +0.145 C 
ENDROOT
BRANCH   1   2
ATOM      2  C   LEU A   1      -8.275  17.611  12.248  0.00  0.00    +0.238 C 
ATOM      3  N   GLY A   2      -8.817  17.226  13.405  0.00  0.00    -0.297 N 
ATOM      4  H   GLY A   2      -8.381  17.549  14.293  0.00  0.00    +0.150 HD
ATOM      5  O   LEU A   1      -8.761  17.313  11.154  0.00  0.00    -0.274 OA
BRANCH   3   6
ATOM      6  CA  GLY A   2     -10.000  16.368  13.474  0.00  0.00    +0.163 C 
BRANCH   6   7
ATOM      7  C   GLY A   2     -11.312  17.017  13.057  0.00  0.00    +0.229 C 
ATOM      8  O   GLY A   2     -12.220  16.345  12.540  0.00  0.00    -0.286 OA
ENDBRANCH   6   7
ENDBRANCH   3   6
ENDBRANCH   1   2
BRANCH   1   9
ATOM      9  N   LEU A   1      -6.880  19.170  13.617  0.00  0.00    -0.238 NA
ATOM     10  H   LEU A   1      -6.125  18.862  14.263  0.00  0.00    +0.142 HD
ENDBRANCH   1   9
BRANCH   1  11
ATOM     11  CB  LEU A   1      -5.734  17.703  12.040  0.00  0.00    +0.026 C 
BRANCH  11  12
ATOM     12  CG  LEU A   1      -4.413  18.451  12.306  0.00  0.00    +0.002 C 
ATOM     13  CD2 LEU A   1      -3.181  17.559  12.086  0.00  0.00    +0.000 C 
ATOM     14  CD1 LEU A   1      -4.285  19.750  11.494  0.00  0.00    +0.000 C 
ENDBRANCH  11  12
ENDBRANCH   1  11
TORSDOF 6
REMARK  Name = ../refined-set-2016/4f0c/4f0c_pocket.pdb
REMARK  234 active torsions:
REMARK  status: ('A' for Active; 'I' for Inactive)
REMARK    1  A    between atoms: _1  and  _3
REMARK    2  A    between atoms: _3  and  _4
REMARK    3  A    between atoms: _3  and  _6
REMARK    4  A    between atoms: _6  and  _7
REMARK    5  A    between atoms: _12  and  _14
REMARK    6  A    between atoms: _14  and  _15
REMARK    7  A    between atoms: _14  and  _17
REMARK    8  A    between atoms: _17  and  _18
REMARK    9  A    between atoms: _23  and  _25
REMARK   10  A    between atoms: _25  and  _26
REMARK   11  A    between atoms: _25  and  _28
REMARK   12  A    between atoms: _31  and  _33
REMARK   13  A    between atoms: _33  and  _34
REMARK   14  A    between atoms: _37  and  _38
REMARK   15  A    between atoms: _43  and  _45
REMARK   16  A    between atoms: _45  and  _46
REMARK   17  A    between atoms: _45  and  _48
REMARK   18  A    between atoms: _48  and  _49
REMARK   19  A    between atoms: _54  and  _56
REMARK   20  A    between atoms: _56  and  _57
REMARK   21  A    between atoms: _59  and  _61
REMARK   22  A    between atoms: _61  and  _62
REMARK   23  A    between atoms: _61  and  _64
REMARK   24  A    between atoms: _64  and  _65
REMARK   25  A    between atoms: _75  and  _77
REMARK   26  A    between atoms: _77  and  _78
REMARK   27  A    between atoms: _77  and  _80
REMARK   28  A    between atoms: _80  and  _81
REMARK   29  A    between atoms: _81  and  _82
REMARK   30  A    between atoms: _82  and  _83
REMARK   31  A    between atoms: _83  and  _84
REMARK   32  A    between atoms: _88  and  _90
REMARK   33  A    between atoms: _90  and  _91
REMARK   34  A    between atoms: _90  and  _93
REMARK   35  A    between atoms: _96  and  _98
REMARK   36  A    between atoms: _98  and  _99
REMARK   37  A    between atoms: _98  and  _101
REMARK   38  A    between atoms: _104  and  _106
REMARK   39  A    between atoms: _106  and  _107
REMARK   40  A    between atoms: _106  and  _109
REMARK   41  A    between atoms: _109  and  _110
REMARK   42  A    between atoms: _113  and  _115
REMARK   43  A    between atoms: _115  and  _116
REMARK   44  A    between atoms: _118  and  _120
REMARK   45  A    between atoms: _120  and  _121
REMARK   46  A    between atoms: _120  and  _123
REMARK   47  A    between atoms: _123  and  _124
REMARK   48  A    between atoms: _124  and  _125
REMARK   49  A    between atoms: _125  and  _126
REMARK   50  A    between atoms: _135  and  _137
REMARK   51  A    between atoms: _137  and  _138
REMARK   52  A    between atoms: _137  and  _140
REMARK   53  A    between atoms: _140  and  _141
REMARK   54  A    between atoms: _146  and  _148
REMARK   55  A    between atoms: _148  and  _149
REMARK   56  A    between atoms: _148  and  _151
REMARK   57  A    between atoms: _151  and  _152
REMARK   58  A    between atoms: _152  and  _153
REMARK   59  A    between atoms: _153  and  _154
REMARK   60  A    between atoms: _154  and  _155
REMARK   61  A    between atoms: _159  and  _161
REMARK   62  A    between atoms: _161  and  _162
REMARK   63  A    between atoms: _161  and  _164
REMARK   64  A    between atoms: _164  and  _165
REMARK   65  A    between atoms: _171  and  _173
REMARK   66  A    between atoms: _173  and  _174
REMARK   67  A    between atoms: _173  and  _176
REMARK   68  A    between atoms: _176  and  _177
REMARK   69  A    between atoms: _182  and  _184
REMARK   70  A    between atoms: _184  and  _185
REMARK   71  A    between atoms: _184  and  _187
REMARK   72  A    between atoms: _187  and  _188
REMARK   73  A    between atoms: _193  and  _195
REMARK   74  A    between atoms: _195  and  _196
REMARK   75  A    between atoms: _198  and  _200
REMARK   76  A    between atoms: _200  and  _201
REMARK   77  A    between atoms: _200  and  _203
REMARK   78  A    between atoms: _203  and  _204
REMARK   79  A    between atoms: _204  and  _205
REMARK   80  A    between atoms: _205  and  _206
REMARK   81  A    between atoms: _215  and  _217
REMARK   82  A    between atoms: _217  and  _218
REMARK   83  A    between atoms: _217  and  _220
REMARK   84  A    between atoms: _220  and  _221
REMARK   85  A    between atoms: _225  and  _226
REMARK   86  A    between atoms: _231  and  _233
REMARK   87  A    between atoms: _233  and  _234
REMARK   88  A    between atoms: _237  and  _239
REMARK   89  A    between atoms: _239  and  _240
REMARK   90  A    between atoms: _239  and  _242
REMARK   91  A    between atoms: _242  and  _243
REMARK   92  A    between atoms: _253  and  _255
REMARK   93  A    between atoms: _255  and  _256
REMARK   94  A    between atoms: _255  and  _258
REMARK   95  A    between atoms: _258  and  _259
REMARK   96  A    between atoms: _259  and  _260
REMARK   97  A    between atoms: _263  and  _265
REMARK   98  A    between atoms: _265  and  _266
REMARK   99  A    between atoms: _265  and  _268
REMARK  100  A    between atoms: _268  and  _269
REMARK  101  A    between atoms: _271  and  _273
REMARK  102  A    between atoms: _273  and  _274
REMARK  103  A    between atoms: _273  and  _276
REMARK  104  A    between atoms: _276  and  _277
REMARK  105  A    between atoms: _280  and  _282
REMARK  106  A    between atoms: _282  and  _283
REMARK  107  A    between atoms: _286  and  _288
REMARK  108  A    between atoms: _288  and  _289
REMARK  109  A    between atoms: _288  and  _291
REMARK  110  A    between atoms: _291  and  _292
REMARK  111  A    between atoms: _295  and  _297
REMARK  112  A    between atoms: _297  and  _298
REMARK  113  A    between atoms: _297  and  _300
REMARK  114  A    between atoms: _300  and  _301
REMARK  115  A    between atoms: _301  and  _302
REMARK  116  A    between atoms: _307  and  _309
REMARK  117  A    between atoms: _309  and  _310
REMARK  118  A    between atoms: _313  and  _315
REMARK  119  A    between atoms: _315  and  _316
REMARK  120  A    between atoms: _315  and  _318
REMARK  121  A    between atoms: _318  and  _319
REMARK  122  A    between atoms: _321  and  _323
REMARK  123  A    between atoms: _323  and  _324
REMARK  124  A    between atoms: _326  and  _328
REMARK  125  A    between atoms: _328  and  _329
REMARK  126  A    between atoms: _328  and  _331
REMARK  127  A    between atoms: _331  and  _332
REMARK  128  A    between atoms: _332  and  _333
REMARK  129  A    between atoms: _338  and  _340
REMARK  130  A    between atoms: _340  and  _341
REMARK  131  A    between atoms: _344  and  _345
REMARK  132  A    between atoms: _350  and  _352
REMARK  133  A    between atoms: _352  and  _353
REMARK  134  A    between atoms: _352  and  _355
REMARK  135  A    between atoms: _355  and  _356
REMARK  136  A    between atoms: _361  and  _362
REMARK  137  A    between atoms: _364  and  _366
REMARK  138  A    between atoms: _366  and  _367
REMARK  139  A    between atoms: _366  and  _369
REMARK  140  A    between atoms: _369  and  _370
REMARK  141  A    between atoms: _376  and  _378
REMARK  142  A    between atoms: _378  and  _379
REMARK  143  A    between atoms: _381  and  _383
REMARK  144  A    between atoms: _383  and  _384
REMARK  145  A    between atoms: _383  and  _386
REMARK  146  A    between atoms: _386  and  _387
REMARK  147  A    between atoms: _387  and  _388
REMARK  148  A    between atoms: _393  and  _395
REMARK  149  A    between atoms: _395  and  _396
REMARK  150  A    between atoms: _399  and  _401
REMARK  151  A    between atoms: _401  and  _402
REMARK  152  A    between atoms: _404  and  _406
REMARK  153  A    between atoms: _406  and  _407
REMARK  154  A    between atoms: _406  and  _409
REMARK  155  A    between atoms: _409  and  _410
REMARK  156  A    between atoms: _420  and  _422
REMARK  157  A    between atoms: _422  and  _423
REMARK  158  A    between atoms: _422  and  _425
REMARK  159  A    between atoms: _425  and  _426
REMARK  160  A    between atoms: _432  and  _434
REMARK  161  A    between atoms: _434  and  _435
REMARK  162  A    between atoms: _434  and  _437
REMARK  163  A    between atoms: _440  and  _442
REMARK  164  A    between atoms: _442  and  _443
REMARK  165  A    between atoms: _446  and  _448
REMARK  166  A    between atoms: _448  and  _449
REMARK  167  A    between atoms: _448  and  _451
REMARK  168  A    between atoms: _451  and  _452
REMARK  169  A    between atoms: _452  and  _453
REMARK  170  A    between atoms: _456  and  _458
REMARK  171  A    between atoms: _458  and  _459
REMARK  172  A    between atoms: _458  and  _461
REMARK  173  A    between atoms: _461  and  _462
REMARK  174  A    between atoms: _472  and  _474
REMARK  175  A    between atoms: _474  and  _475
REMARK  176  A    between atoms: _474  and  _477
REMARK  177  A    between atoms: _477  and  _478
REMARK  178  A    between atoms: _478  and  _479
REMARK  179  A    between atoms: _479  and  _480
REMARK  180  A    between atoms: _480  and  _481
REMARK  181  A    between atoms: _485  and  _487
REMARK  182  A    between atoms: _487  and  _488
REMARK  183  A    between atoms: _487  and  _490
REMARK  184  A    between atoms: _490  and  _491
REMARK  185  A    between atoms: _497  and  _499
REMARK  186  A    between atoms: _499  and  _500
REMARK  187  A    between atoms: _499  and  _502
REMARK  188  A    between atoms: _502  and  _503
REMARK  189  A    between atoms: _509  and  _511
REMARK  190  A    between atoms: _511  and  _512
REMARK  191  A    between atoms: _511  and  _514
REMARK  192  A    between atoms: _514  and  _515
REMARK  193  A    between atoms: _515  and  _516
REMARK  194  A    between atoms: _521  and  _523
REMARK  195  A    between atoms: _523  and  _524
REMARK  196  A    between atoms: _527  and  _529
REMARK  197  A    between atoms: _529  and  _530
REMARK  198  A    between atoms: _529  and  _532
REMARK  199  A    between atoms: _532  and  _533
REMARK  200  A    between atoms: _535  and  _537
REMARK  201  A    between atoms: _537  and  _538
REMARK  202  A    between atoms: _540  and  _542
REMARK  203  A    between atoms: _542  and  _543
REMARK  204  A    between atoms: _542  and  _545
REMARK  205  A    between atoms: _545  and  _546
REMARK  206  A    between atoms: _546  and  _547
REMARK  207  A    between atoms: _553  and  _554
REMARK  208  A    between atoms: _559  and  _561
REMARK  209  A    between atoms: _561  and  _562
REMARK  210  A    between atoms: _561  and  _564
REMARK  211  A    between atoms: _564  and  _565
REMARK  212  A    between atoms: _570  and  _571
REMARK  213  A    between atoms: _573  and  _575
REMARK  214  A    between atoms: _575  and  _576
REMARK  215  A    between atoms: _575  and  _578
REMARK  216  A    between atoms: _578  and  _579
REMARK  217  A    between atoms: _579  and  _580
REMARK  218  A    between atoms: _580  and  _581
REMARK  219  A    between atoms: _590  and  _592
REMARK  220  A    between atoms: _592  and  _593
REMARK  221  A    between atoms: _592  and  _595
REMARK  222  A    between atoms: _595  and  _596
REMARK  223  A    between atoms: _601  and  _602
REMARK  224  A    between atoms: _604  and  _606
REMARK  225  A    between atoms: _606  and  _607
REMARK  226  A    between atoms: _606  and  _609
REMARK  227  A    between atoms: _609  and  _610
REMARK  228  A    between atoms: _610  and  _611
REMARK  229  A    between atoms: _614  and  _616
REMARK  230  A    between atoms: _616  and  _617
REMARK  231  A    between atoms: _616  and  _619
REMARK  232  A    between atoms: _619  and  _620
REMARK  233  A    between atoms: _620  and  _621
REMARK  234  A    between atoms: _621  and  _622
REMARK                            x       y       z     vdW  Elec       q    Type
REMARK                         _______ _______ _______ _____ _____    ______ ____
ROOT
ATOM      1  NE  ARG A   1     -12.203  18.025   6.014  0.00  0.00    -0.265 N 
ATOM      2  HE  ARG A   1     -12.851  18.801   5.773  0.00  0.00    +0.259 HD
ATOM      3  CZ  ARG A   1     -11.252  17.720   5.132  0.00  0.00    +0.342 C 
ATOM      4  NH2 ARG A   1     -10.386  16.740   5.377  0.00  0.00    -0.292 N 
ATOM      5 HH21 ARG A   1     -10.447  16.202   6.265  0.00  0.00    +0.255 HD
ATOM      6 HH22 ARG A   1      -9.648  16.512   4.680  0.00  0.00    +0.255 HD
ATOM      7  NH1 ARG A   1     -11.164  18.405   3.997  0.00  0.00    -0.292 N 
ATOM      8 HH11 ARG A   1     -11.835  19.175   3.801  0.00  0.00    +0.255 HD
ATOM      9 HH12 ARG A   1     -10.424  18.172   3.305  0.00  0.00    +0.255 HD
ENDROOT
BRANCH   1  10
ATOM     10  CD  ARG A   1     -12.404  17.350   7.297  0.00  0.00    +0.174 C 
BRANCH  10  11
ATOM     11  CG  ARG A   1     -11.415  17.832   8.368  0.00  0.00    +0.045 C 
BRANCH  11  12
ATOM     12  CB  ARG A   1     -11.417  19.356   8.551  0.00  0.00    +0.029 C 
BRANCH  12  13
ATOM     13  CA  ARG A   1     -10.523  19.835   9.709  0.00  0.00    +0.133 C 
BRANCH  13  14
ATOM     14  N   ARG A   1     -11.021  19.342  10.989  0.00  0.00    -0.239 NA
ATOM     15  H   ARG A   1     -10.456  18.642  11.511  0.00  0.00    +0.142 HD
ENDBRANCH  13  14
BRANCH  13  16
ATOM     16  C   ARG A   1     -10.388  21.365   9.744  0.00  0.00    +0.224 C 
ATOM     17  O   ARG A   1     -10.706  22.053   8.774  0.00  0.00    -0.287 OA
ENDBRANCH  13  16
ENDBRANCH  12  13
ENDBRANCH  11  12
ENDBRANCH  10  11
ENDBRANCH   1  10
TORSDOF 6
REMARK  Name = ../refined-set-2016/4f0c/4f0c_pocket.pdb
REMARK  234 active torsions:
REMARK  status: ('A' for Active; 'I' for Inactive)
REMARK    1  A    between atoms: _1  and  _3
REMARK    2  A    between atoms: _3  and  _4
REMARK    3  A    between atoms: _3  and  _6
REMARK    4  A    between atoms: _6  and  _7
REMARK    5  A    between atoms: _12  and  _14
REMARK    6  A    between atoms: _14  and  _15
REMARK    7  A    between atoms: _14  and  _17
REMARK    8  A    between atoms: _17  and  _18
REMARK    9  A    between atoms: _23  and  _25
REMARK   10  A    between atoms: _25  and  _26
REMARK   11  A    between atoms: _25  and  _28
REMARK   12  A    between atoms: _31  and  _33
REMARK   13  A    between atoms: _33  and  _34
REMARK   14  A    between atoms: _37  and  _38
REMARK   15  A    between atoms: _43  and  _45
REMARK   16  A    between atoms: _45  and  _46
REMARK   17  A    between atoms: _45  and  _48
REMARK   18  A    between atoms: _48  and  _49
REMARK   19  A    between atoms: _54  and  _56
REMARK   20  A    between atoms: _56  and  _57
REMARK   21  A    between atoms: _59  and  _61
REMARK   22  A    between atoms: _61  and  _62
REMARK   23  A    between atoms: _61  and  _64
REMARK   24  A    between atoms: _64  and  _65
REMARK   25  A    between atoms: _75  and  _77
REMARK   26  A    between atoms: _77  and  _78
REMARK   27  A    between atoms: _77  and  _80
REMARK   28  A    between atoms: _80  and  _81
REMARK   29  A    between atoms: _81  and  _82
REMARK   30  A    between atoms: _82  and  _83
REMARK   31  A    between atoms: _83  and  _84
REMARK   32  A    between atoms: _88  and  _90
REMARK   33  A    between atoms: _90  and  _91
REMARK   34  A    between atoms: _90  and  _93
REMARK   35  A    between atoms: _96  and  _98
REMARK   36  A    between atoms: _98  and  _99
REMARK   37  A    between atoms: _98  and  _101
REMARK   38  A    between atoms: _104  and  _106
REMARK   39  A    between atoms: _106  and  _107
REMARK   40  A    between atoms: _106  and  _109
REMARK   41  A    between atoms: _109  and  _110
REMARK   42  A    between atoms: _113  and  _115
REMARK   43  A    between atoms: _115  and  _116
REMARK   44  A    between atoms: _118  and  _120
REMARK   45  A    between atoms: _120  and  _121
REMARK   46  A    between atoms: _120  and  _123
REMARK   47  A    between atoms: _123  and  _124
REMARK   48  A    between atoms: _124  and  _125
REMARK   49  A    between atoms: _125  and  _126
REMARK   50  A    between atoms: _135  and  _137
REMARK   51  A    between atoms: _137  and  _138
REMARK   52  A    between atoms: _137  and  _140
REMARK   53  A    between atoms: _140  and  _141
REMARK   54  A    between atoms: _146  and  _148
REMARK   55  A    between atoms: _148  and  _149
REMARK   56  A    between atoms: _148  and  _151
REMARK   57  A    between atoms: _151  and  _152
REMARK   58  A    between atoms: _152  and  _153
REMARK   59  A    between atoms: _153  and  _154
REMARK   60  A    between atoms: _154  and  _155
REMARK   61  A    between atoms: _159  and  _161
REMARK   62  A    between atoms: _161  and  _162
REMARK   63  A    between atoms: _161  and  _164
REMARK   64  A    between atoms: _164  and  _165
REMARK   65  A    between atoms: _171  and  _173
REMARK   66  A    between atoms: _173  and  _174
REMARK   67  A    between atoms: _173  and  _176
REMARK   68  A    between atoms: _176  and  _177
REMARK   69  A    between atoms: _182  and  _184
REMARK   70  A    between atoms: _184  and  _185
REMARK   71  A    between atoms: _184  and  _187
REMARK   72  A    between atoms: _187  and  _188
REMARK   73  A    between atoms: _193  and  _195
REMARK   74  A    between atoms: _195  and  _196
REMARK   75  A    between atoms: _198  and  _200
REMARK   76  A    between atoms: _200  and  _201
REMARK   77  A    between atoms: _200  and  _203
REMARK   78  A    between atoms: _203  and  _204
REMARK   79  A    between atoms: _204  and  _205
REMARK   80  A    between atoms: _205  and  _206
REMARK   81  A    between atoms: _215  and  _217
REMARK   82  A    between atoms: _217  and  _218
REMARK   83  A    between atoms: _217  and  _220
REMARK   84  A    between atoms: _220  and  _221
REMARK   85  A    between atoms: _225  and  _226
REMARK   86  A    between atoms: _231  and  _233
REMARK   87  A    between atoms: _233  and  _234
REMARK   88  A    between atoms: _237  and  _239
REMARK   89  A    between atoms: _239  and  _240
REMARK   90  A    between atoms: _239  and  _242
REMARK   91  A    between atoms: _242  and  _243
REMARK   92  A    between atoms: _253  and  _255
REMARK   93  A    between atoms: _255  and  _256
REMARK   94  A    between atoms: _255  and  _258
REMARK   95  A    between atoms: _258  and  _259
REMARK   96  A    between atoms: _259  and  _260
REMARK   97  A    between atoms: _263  and  _265
REMARK   98  A    between atoms: _265  and  _266
REMARK   99  A    between atoms: _265  and  _268
REMARK  100  A    between atoms: _268  and  _269
REMARK  101  A    between atoms: _271  and  _273
REMARK  102  A    between atoms: _273  and  _274
REMARK  103  A    between atoms: _273  and  _276
REMARK  104  A    between atoms: _276  and  _277
REMARK  105  A    between atoms: _280  and  _282
REMARK  106  A    between atoms: _282  and  _283
REMARK  107  A    between atoms: _286  and  _288
REMARK  108  A    between atoms: _288  and  _289
REMARK  109  A    between atoms: _288  and  _291
REMARK  110  A    between atoms: _291  and  _292
REMARK  111  A    between atoms: _295  and  _297
REMARK  112  A    between atoms: _297  and  _298
REMARK  113  A    between atoms: _297  and  _300
REMARK  114  A    between atoms: _300  and  _301
REMARK  115  A    between atoms: _301  and  _302
REMARK  116  A    between atoms: _307  and  _309
REMARK  117  A    between atoms: _309  and  _310
REMARK  118  A    between atoms: _313  and  _315
REMARK  119  A    between atoms: _315  and  _316
REMARK  120  A    between atoms: _315  and  _318
REMARK  121  A    between atoms: _318  and  _319
REMARK  122  A    between atoms: _321  and  _323
REMARK  123  A    between atoms: _323  and  _324
REMARK  124  A    between atoms: _326  and  _328
REMARK  125  A    between atoms: _328  and  _329
REMARK  126  A    between atoms: _328  and  _331
REMARK  127  A    between atoms: _331  and  _332
REMARK  128  A    between atoms: _332  and  _333
REMARK  129  A    between atoms: _338  and  _340
REMARK  130  A    between atoms: _340  and  _341
REMARK  131  A    between atoms: _344  and  _345
REMARK  132  A    between atoms: _350  and  _352
REMARK  133  A    between atoms: _352  and  _353
REMARK  134  A    between atoms: _352  and  _355
REMARK  135  A    between atoms: _355  and  _356
REMARK  136  A    between atoms: _361  and  _362
REMARK  137  A    between atoms: _364  and  _366
REMARK  138  A    between atoms: _366  and  _367
REMARK  139  A    between atoms: _366  and  _369
REMARK  140  A    between atoms: _369  and  _370
REMARK  141  A    between atoms: _376  and  _378
REMARK  142  A    between atoms: _378  and  _379
REMARK  143  A    between atoms: _381  and  _383
REMARK  144  A    between atoms: _383  and  _384
REMARK  145  A    between atoms: _383  and  _386
REMARK  146  A    between atoms: _386  and  _387
REMARK  147  A    between atoms: _387  and  _388
REMARK  148  A    between atoms: _393  and  _395
REMARK  149  A    between atoms: _395  and  _396
REMARK  150  A    between atoms: _399  and  _401
REMARK  151  A    between atoms: _401  and  _402
REMARK  152  A    between atoms: _404  and  _406
REMARK  153  A    between atoms: _406  and  _407
REMARK  154  A    between atoms: _406  and  _409
REMARK  155  A    between atoms: _409  and  _410
REMARK  156  A    between atoms: _420  and  _422
REMARK  157  A    between atoms: _422  and  _423
REMARK  158  A    between atoms: _422  and  _425
REMARK  159  A    between atoms: _425  and  _426
REMARK  160  A    between atoms: _432  and  _434
REMARK  161  A    between atoms: _434  and  _435
REMARK  162  A    between atoms: _434  and  _437
REMARK  163  A    between atoms: _440  and  _442
REMARK  164  A    between atoms: _442  and  _443
REMARK  165  A    between atoms: _446  and  _448
REMARK  166  A    between atoms: _448  and  _449
REMARK  167  A    between atoms: _448  and  _451
REMARK  168  A    between atoms: _451  and  _452
REMARK  169  A    between atoms: _452  and  _453
REMARK  170  A    between atoms: _456  and  _458
REMARK  171  A    between atoms: _458  and  _459
REMARK  172  A    between atoms: _458  and  _461
REMARK  173  A    between atoms: _461  and  _462
REMARK  174  A    between atoms: _472  and  _474
REMARK  175  A    between atoms: _474  and  _475
REMARK  176  A    between atoms: _474  and  _477
REMARK  177  A    between atoms: _477  and  _478
REMARK  178  A    between atoms: _478  and  _479
REMARK  179  A    between atoms: _479  and  _480
REMARK  180  A    between atoms: _480  and  _481
REMARK  181  A    between atoms: _485  and  _487
REMARK  182  A    between atoms: _487  and  _488
REMARK  183  A    between atoms: _487  and  _490
REMARK  184  A    between atoms: _490  and  _491
REMARK  185  A    between atoms: _497  and  _499
REMARK  186  A    between atoms: _499  and  _500
REMARK  187  A    between atoms: _499  and  _502
REMARK  188  A    between atoms: _502  and  _503
REMARK  189  A    between atoms: _509  and  _511
REMARK  190  A    between atoms: _511  and  _512
REMARK  191  A    between atoms: _511  and  _514
REMARK  192  A    between atoms: _514  and  _515
REMARK  193  A    between atoms: _515  and  _516
REMARK  194  A    between atoms: _521  and  _523
REMARK  195  A    between atoms: _523  and  _524
REMARK  196  A    between atoms: _527  and  _529
REMARK  197  A    between atoms: _529  and  _530
REMARK  198  A    between atoms: _529  and  _532
REMARK  199  A    between atoms: _532  and  _533
REMARK  200  A    between atoms: _535  and  _537
REMARK  201  A    between atoms: _537  and  _538
REMARK  202  A    between atoms: _540  and  _542
REMARK  203  A    between atoms: _542  and  _543
REMARK  204  A    between atoms: _542  and  _545
REMARK  205  A    between atoms: _545  and  _546
REMARK  206  A    between atoms: _546  and  _547
REMARK  207  A    between atoms: _553  and  _554
REMARK  208  A    between atoms: _559  and  _561
REMARK  209  A    between atoms: _561  and  _562
REMARK  210  A    between atoms: _561  and  _564
REMARK  211  A    between atoms: _564  and  _565
REMARK  212  A    between atoms: _570  and  _571
REMARK  213  A    between atoms: _573  and  _575
REMARK  214  A    between atoms: _575  and  _576
REMARK  215  A    between atoms: _575  and  _578
REMARK  216  A    between atoms: _578  and  _579
REMARK  217  A    between atoms: _579  and  _580
REMARK  218  A    between atoms: _580  and  _581
REMARK  219  A    between atoms: _590  and  _592
REMARK  220  A    between atoms: _592  and  _593
REMARK  221  A    between atoms: _592  and  _595
REMARK  222  A    between atoms: _595  and  _596
REMARK  223  A    between atoms: _601  and  _602
REMARK  224  A    between atoms: _604  and  _606
REMARK  225  A    between atoms: _606  and  _607
REMARK  226  A    between atoms: _606  and  _609
REMARK  227  A    between atoms: _609  and  _610
REMARK  228  A    between atoms: _610  and  _611
REMARK  229  A    between atoms: _614  and  _616
REMARK  230  A    between atoms: _616  and  _617
REMARK  231  A    between atoms: _616  and  _619
REMARK  232  A    between atoms: _619  and  _620
REMARK  233  A    between atoms: _620  and  _621
REMARK  234  A    between atoms: _621  and  _622
REMARK                            x       y       z     vdW  Elec       q    Type
REMARK                         _______ _______ _______ _____ _____    ______ ____
ROOT
ATOM      1  C   HIS A   1      -7.065  23.434   7.489  0.00  0.00    +0.239 C 
ATOM      2  N   LYS A   2      -8.265  22.961   7.162  0.00  0.00    -0.298 N 
ATOM      3  H   LYS A   2      -8.844  22.499   7.892  0.00  0.00    +0.150 HD
ATOM      4  O   HIS A   1      -6.319  23.985   6.678  0.00  0.00    -0.274 OA
ENDROOT
BRANCH   1   5
ATOM      5  CA  HIS A   1      -6.632  23.279   8.959  0.00  0.00    +0.151 C 
BRANCH   5   6
ATOM      6  N   HIS A   1      -7.747  22.943   9.845  0.00  0.00    -0.238 NA
ATOM      7  H   HIS A   1      -7.791  21.991  10.262  0.00  0.00    +0.142 HD
ENDBRANCH   5   6
BRANCH   5   8
ATOM      8  CB  HIS A   1      -5.529  22.225   9.092  0.00  0.00    +0.074 C 
BRANCH   8   9
ATOM      9  CG  HIS A   1      -5.984  20.835   8.760  0.00  0.00    +0.082 A 
ATOM     10  ND1 HIS A   1      -7.048  20.226   9.398  0.00  0.00    -0.227 NA
ATOM     11  CE1 HIS A   1      -7.222  19.012   8.897  0.00  0.00    +0.199 A 
ATOM     12  NE2 HIS A   1      -6.304  18.808   7.966  0.00  0.00    -0.221 NA
ATOM     13  CD2 HIS A   1      -5.520  19.935   7.858  0.00  0.00    +0.115 A 
ENDBRANCH   8   9
ENDBRANCH   5   8
ENDBRANCH   1   5
BRANCH   2  14
ATOM     14  CA  LYS A   2      -8.791  23.074   5.803  0.00  0.00    +0.137 C 
BRANCH  14  15
ATOM     15  C   LYS A   2      -9.878  24.145   5.703  0.00  0.00    +0.227 C 
ATOM     16  O   LYS A   2     -10.464  24.348   4.640  0.00  0.00    -0.286 OA
ENDBRANCH  14  15
BRANCH  14  17
ATOM     17  CB  LYS A   2      -9.336  21.726   5.319  0.00  0.00    +0.028 C 
BRANCH  17  18
ATOM     18  CG  LYS A   2      -8.288  20.622   5.212  0.00  0.00    -0.000 C 
BRANCH  18  19
ATOM     19  CD  LYS A   2      -7.179  20.997   4.237  0.00  0.00    -0.024 C 
BRANCH  19  20
ATOM     20  CE  LYS A   2      -6.103  19.916   4.181  0.00  0.00    -0.086 C 
BRANCH  20  21
ATOM     21  NZ  LYS A   2      -6.662  18.582   3.816  0.00  0.00    +0.380 N 
ATOM     22  HZ1 LYS A   2      -7.369  18.298   4.524  0.00  0.00    -0.089 HD
ATOM     23  HZ2 LYS A   2      -5.894  17.881   3.791  0.00  0.00    -0.089 HD
ATOM     24  HZ3 LYS A   2      -7.111  18.640   2.880  0.00  0.00    -0.089 HD
ENDBRANCH  20  21
ENDBRANCH  19  20
ENDBRANCH  18  19
ENDBRANCH  17  18
ENDBRANCH  14  17
ENDBRANCH   2  14
TORSDOF 11
REMARK  Name = ../refined-set-2016/4f0c/4f0c_pocket.pdb
REMARK  234 active torsions:
REMARK  status: ('A' for Active; 'I' for Inactive)
REMARK    1  A    between atoms: _1  and  _3
REMARK    2  A    between atoms: _3  and  _4
REMARK    3  A    between atoms: _3  and  _6
REMARK    4  A    between atoms: _6  and  _7
REMARK    5  A    between atoms: _12  and  _14
REMARK    6  A    between atoms: _14  and  _15
REMARK    7  A    between atoms: _14  and  _17
REMARK    8  A    between atoms: _17  and  _18
REMARK    9  A    between atoms: _23  and  _25
REMARK   10  A    between atoms: _25  and  _26
REMARK   11  A    between atoms: _25  and  _28
REMARK   12  A    between atoms: _31  and  _33
REMARK   13  A    between atoms: _33  and  _34
REMARK   14  A    between atoms: _37  and  _38
REMARK   15  A    between atoms: _43  and  _45
REMARK   16  A    between atoms: _45  and  _46
REMARK   17  A    between atoms: _45  and  _48
REMARK   18  A    between atoms: _48  and  _49
REMARK   19  A    between atoms: _54  and  _56
REMARK   20  A    between atoms: _56  and  _57
REMARK   21  A    between atoms: _59  and  _61
REMARK   22  A    between atoms: _61  and  _62
REMARK   23  A    between atoms: _61  and  _64
REMARK   24  A    between atoms: _64  and  _65
REMARK   25  A    between atoms: _75  and  _77
REMARK   26  A    between atoms: _77  and  _78
REMARK   27  A    between atoms: _77  and  _80
REMARK   28  A    between atoms: _80  and  _81
REMARK   29  A    between atoms: _81  and  _82
REMARK   30  A    between atoms: _82  and  _83
REMARK   31  A    between atoms: _83  and  _84
REMARK   32  A    between atoms: _88  and  _90
REMARK   33  A    between atoms: _90  and  _91
REMARK   34  A    between atoms: _90  and  _93
REMARK   35  A    between atoms: _96  and  _98
REMARK   36  A    between atoms: _98  and  _99
REMARK   37  A    between atoms: _98  and  _101
REMARK   38  A    between atoms: _104  and  _106
REMARK   39  A    between atoms: _106  and  _107
REMARK   40  A    between atoms: _106  and  _109
REMARK   41  A    between atoms: _109  and  _110
REMARK   42  A    between atoms: _113  and  _115
REMARK   43  A    between atoms: _115  and  _116
REMARK   44  A    between atoms: _118  and  _120
REMARK   45  A    between atoms: _120  and  _121
REMARK   46  A    between atoms: _120  and  _123
REMARK   47  A    between atoms: _123  and  _124
REMARK   48  A    between atoms: _124  and  _125
REMARK   49  A    between atoms: _125  and  _126
REMARK   50  A    between atoms: _135  and  _137
REMARK   51  A    between atoms: _137  and  _138
REMARK   52  A    between atoms: _137  and  _140
REMARK   53  A    between atoms: _140  and  _141
REMARK   54  A    between atoms: _146  and  _148
REMARK   55  A    between atoms: _148  and  _149
REMARK   56  A    between atoms: _148  and  _151
REMARK   57  A    between atoms: _151  and  _152
REMARK   58  A    between atoms: _152  and  _153
REMARK   59  A    between atoms: _153  and  _154
REMARK   60  A    between atoms: _154  and  _155
REMARK   61  A    between atoms: _159  and  _161
REMARK   62  A    between atoms: _161  and  _162
REMARK   63  A    between atoms: _161  and  _164
REMARK   64  A    between atoms: _164  and  _165
REMARK   65  A    between atoms: _171  and  _173
REMARK   66  A    between atoms: _173  and  _174
REMARK   67  A    between atoms: _173  and  _176
REMARK   68  A    between atoms: _176  and  _177
REMARK   69  A    between atoms: _182  and  _184
REMARK   70  A    between atoms: _184  and  _185
REMARK   71  A    between atoms: _184  and  _187
REMARK   72  A    between atoms: _187  and  _188
REMARK   73  A    between atoms: _193  and  _195
REMARK   74  A    between atoms: _195  and  _196
REMARK   75  A    between atoms: _198  and  _200
REMARK   76  A    between atoms: _200  and  _201
REMARK   77  A    between atoms: _200  and  _203
REMARK   78  A    between atoms: _203  and  _204
REMARK   79  A    between atoms: _204  and  _205
REMARK   80  A    between atoms: _205  and  _206
REMARK   81  A    between atoms: _215  and  _217
REMARK   82  A    between atoms: _217  and  _218
REMARK   83  A    between atoms: _217  and  _220
REMARK   84  A    between atoms: _220  and  _221
REMARK   85  A    between atoms: _225  and  _226
REMARK   86  A    between atoms: _231  and  _233
REMARK   87  A    between atoms: _233  and  _234
REMARK   88  A    between atoms: _237  and  _239
REMARK   89  A    between atoms: _239  and  _240
REMARK   90  A    between atoms: _239  and  _242
REMARK   91  A    between atoms: _242  and  _243
REMARK   92  A    between atoms: _253  and  _255
REMARK   93  A    between atoms: _255  and  _256
REMARK   94  A    between atoms: _255  and  _258
REMARK   95  A    between atoms: _258  and  _259
REMARK   96  A    between atoms: _259  and  _260
REMARK   97  A    between atoms: _263  and  _265
REMARK   98  A    between atoms: _265  and  _266
REMARK   99  A    between atoms: _265  and  _268
REMARK  100  A    between atoms: _268  and  _269
REMARK  101  A    between atoms: _271  and  _273
REMARK  102  A    between atoms: _273  and  _274
REMARK  103  A    between atoms: _273  and  _276
REMARK  104  A    between atoms: _276  and  _277
REMARK  105  A    between atoms: _280  and  _282
REMARK  106  A    between atoms: _282  and  _283
REMARK  107  A    between atoms: _286  and  _288
REMARK  108  A    between atoms: _288  and  _289
REMARK  109  A    between atoms: _288  and  _291
REMARK  110  A    between atoms: _291  and  _292
REMARK  111  A    between atoms: _295  and  _297
REMARK  112  A    between atoms: _297  and  _298
REMARK  113  A    between atoms: _297  and  _300
REMARK  114  A    between atoms: _300  and  _301
REMARK  115  A    between atoms: _301  and  _302
REMARK  116  A    between atoms: _307  and  _309
REMARK  117  A    between atoms: _309  and  _310
REMARK  118  A    between atoms: _313  and  _315
REMARK  119  A    between atoms: _315  and  _316
REMARK  120  A    between atoms: _315  and  _318
REMARK  121  A    between atoms: _318  and  _319
REMARK  122  A    between atoms: _321  and  _323
REMARK  123  A    between atoms: _323  and  _324
REMARK  124  A    between atoms: _326  and  _328
REMARK  125  A    between atoms: _328  and  _329
REMARK  126  A    between atoms: _328  and  _331
REMARK  127  A    between atoms: _331  and  _332
REMARK  128  A    between atoms: _332  and  _333
REMARK  129  A    between atoms: _338  and  _340
REMARK  130  A    between atoms: _340  and  _341
REMARK  131  A    between atoms: _344  and  _345
REMARK  132  A    between atoms: _350  and  _352
REMARK  133  A    between atoms: _352  and  _353
REMARK  134  A    between atoms: _352  and  _355
REMARK  135  A    between atoms: _355  and  _356
REMARK  136  A    between atoms: _361  and  _362
REMARK  137  A    between atoms: _364  and  _366
REMARK  138  A    between atoms: _366  and  _367
REMARK  139  A    between atoms: _366  and  _369
REMARK  140  A    between atoms: _369  and  _370
REMARK  141  A    between atoms: _376  and  _378
REMARK  142  A    between atoms: _378  and  _379
REMARK  143  A    between atoms: _381  and  _383
REMARK  144  A    between atoms: _383  and  _384
REMARK  145  A    between atoms: _383  and  _386
REMARK  146  A    between atoms: _386  and  _387
REMARK  147  A    between atoms: _387  and  _388
REMARK  148  A    between atoms: _393  and  _395
REMARK  149  A    between atoms: _395  and  _396
REMARK  150  A    between atoms: _399  and  _401
REMARK  151  A    between atoms: _401  and  _402
REMARK  152  A    between atoms: _404  and  _406
REMARK  153  A    between atoms: _406  and  _407
REMARK  154  A    between atoms: _406  and  _409
REMARK  155  A    between atoms: _409  and  _410
REMARK  156  A    between atoms: _420  and  _422
REMARK  157  A    between atoms: _422  and  _423
REMARK  158  A    between atoms: _422  and  _425
REMARK  159  A    between atoms: _425  and  _426
REMARK  160  A    between atoms: _432  and  _434
REMARK  161  A    between atoms: _434  and  _435
REMARK  162  A    between atoms: _434  and  _437
REMARK  163  A    between atoms: _440  and  _442
REMARK  164  A    between atoms: _442  and  _443
REMARK  165  A    between atoms: _446  and  _448
REMARK  166  A    between atoms: _448  and  _449
REMARK  167  A    between atoms: _448  and  _451
REMARK  168  A    between atoms: _451  and  _452
REMARK  169  A    between atoms: _452  and  _453
REMARK  170  A    between atoms: _456  and  _458
REMARK  171  A    between atoms: _458  and  _459
REMARK  172  A    between atoms: _458  and  _461
REMARK  173  A    between atoms: _461  and  _462
REMARK  174  A    between atoms: _472  and  _474
REMARK  175  A    between atoms: _474  and  _475
REMARK  176  A    between atoms: _474  and  _477
REMARK  177  A    between atoms: _477  and  _478
REMARK  178  A    between atoms: _478  and  _479
REMARK  179  A    between atoms: _479  and  _480
REMARK  180  A    between atoms: _480  and  _481
REMARK  181  A    between atoms: _485  and  _487
REMARK  182  A    between atoms: _487  and  _488
REMARK  183  A    between atoms: _487  and  _490
REMARK  184  A    between atoms: _490  and  _491
REMARK  185  A    between atoms: _497  and  _499
REMARK  186  A    between atoms: _499  and  _500
REMARK  187  A    between atoms: _499  and  _502
REMARK  188  A    between atoms: _502  and  _503
REMARK  189  A    between atoms: _509  and  _511
REMARK  190  A    between atoms: _511  and  _512
REMARK  191  A    between atoms: _511  and  _514
REMARK  192  A    between atoms: _514  and  _515
REMARK  193  A    between atoms: _515  and  _516
REMARK  194  A    between atoms: _521  and  _523
REMARK  195  A    between atoms: _523  and  _524
REMARK  196  A    between atoms: _527  and  _529
REMARK  197  A    between atoms: _529  and  _530
REMARK  198  A    between atoms: _529  and  _532
REMARK  199  A    between atoms: _532  and  _533
REMARK  200  A    between atoms: _535  and  _537
REMARK  201  A    between atoms: _537  and  _538
REMARK  202  A    between atoms: _540  and  _542
REMARK  203  A    between atoms: _542  and  _543
REMARK  204  A    between atoms: _542  and  _545
REMARK  205  A    between atoms: _545  and  _546
REMARK  206  A    between atoms: _546  and  _547
REMARK  207  A    between atoms: _553  and  _554
REMARK  208  A    between atoms: _559  and  _561
REMARK  209  A    between atoms: _561  and  _562
REMARK  210  A    between atoms: _561  and  _564
REMARK  211  A    between atoms: _564  and  _565
REMARK  212  A    between atoms: _570  and  _571
REMARK  213  A    between atoms: _573  and  _575
REMARK  214  A    between atoms: _575  and  _576
REMARK  215  A    between atoms: _575  and  _578
REMARK  216  A    between atoms: _578  and  _579
REMARK  217  A    between atoms: _579  and  _580
REMARK  218  A    between atoms: _580  and  _581
REMARK  219  A    between atoms: _590  and  _592
REMARK  220  A    between atoms: _592  and  _593
REMARK  221  A    between atoms: _592  and  _595
REMARK  222  A    between atoms: _595  and  _596
REMARK  223  A    between atoms: _601  and  _602
REMARK  224  A    between atoms: _604  and  _606
REMARK  225  A    between atoms: _606  and  _607
REMARK  226  A    between atoms: _606  and  _609
REMARK  227  A    between atoms: _609  and  _610
REMARK  228  A    between atoms: _610  and  _611
REMARK  229  A    between atoms: _614  and  _616
REMARK  230  A    between atoms: _616  and  _617
REMARK  231  A    between atoms: _616  and  _619
REMARK  232  A    between atoms: _619  and  _620
REMARK  233  A    between atoms: _620  and  _621
REMARK  234  A    between atoms: _621  and  _622
REMARK                            x       y       z     vdW  Elec       q    Type
REMARK                         _______ _______ _______ _____ _____    ______ ____
ROOT
ATOM      1  CB  PHE A   1      -6.168  27.289   8.941  0.00  0.00    +0.051 C 
ENDROOT
BRANCH   1   2
ATOM      2  CG  PHE A   1      -4.707  26.956   8.962  0.00  0.00    -0.020 A 
ATOM      3  CD2 PHE A   1      -3.851  27.618   9.821  0.00  0.00    -0.004 A 
ATOM      4  CE2 PHE A   1      -2.497  27.335   9.846  0.00  0.00    -0.000 A 
ATOM      5  CZ  PHE A   1      -1.973  26.380   8.979  0.00  0.00    -0.000 A 
ATOM      6  CE1 PHE A   1      -2.825  25.707   8.127  0.00  0.00    -0.000 A 
ATOM      7  CD1 PHE A   1      -4.176  26.002   8.106  0.00  0.00    -0.004 A 
ENDBRANCH   1   2
BRANCH   1   8
ATOM      8  CA  PHE A   1      -6.475  28.634   8.264  0.00  0.00    +0.137 C 
BRANCH   8   9
ATOM      9  N   PHE A   1      -7.887  28.997   8.312  0.00  0.00    -0.239 NA
ATOM     10  H   PHE A   1      -8.615  28.331   7.982  0.00  0.00    +0.142 HD
ENDBRANCH   8   9
BRANCH   8  11
ATOM     11  C   PHE A   1      -5.906  28.651   6.845  0.00  0.00    +0.224 C 
ATOM     12  O   PHE A   1      -4.747  29.001   6.663  0.00  0.00    -0.287 OA
ENDBRANCH   8  11
ENDBRANCH   1   8
TORSDOF 4
REMARK  Name = ../refined-set-2016/4f0c/4f0c_pocket.pdb
REMARK  234 active torsions:
REMARK  status: ('A' for Active; 'I' for Inactive)
REMARK    1  A    between atoms: _1  and  _3
REMARK    2  A    between atoms: _3  and  _4
REMARK    3  A    between atoms: _3  and  _6
REMARK    4  A    between atoms: _6  and  _7
REMARK    5  A    between atoms: _12  and  _14
REMARK    6  A    between atoms: _14  and  _15
REMARK    7  A    between atoms: _14  and  _17
REMARK    8  A    between atoms: _17  and  _18
REMARK    9  A    between atoms: _23  and  _25
REMARK   10  A    between atoms: _25  and  _26
REMARK   11  A    between atoms: _25  and  _28
REMARK   12  A    between atoms: _31  and  _33
REMARK   13  A    between atoms: _33  and  _34
REMARK   14  A    between atoms: _37  and  _38
REMARK   15  A    between atoms: _43  and  _45
REMARK   16  A    between atoms: _45  and  _46
REMARK   17  A    between atoms: _45  and  _48
REMARK   18  A    between atoms: _48  and  _49
REMARK   19  A    between atoms: _54  and  _56
REMARK   20  A    between atoms: _56  and  _57
REMARK   21  A    between atoms: _59  and  _61
REMARK   22  A    between atoms: _61  and  _62
REMARK   23  A    between atoms: _61  and  _64
REMARK   24  A    between atoms: _64  and  _65
REMARK   25  A    between atoms: _75  and  _77
REMARK   26  A    between atoms: _77  and  _78
REMARK   27  A    between atoms: _77  and  _80
REMARK   28  A    between atoms: _80  and  _81
REMARK   29  A    between atoms: _81  and  _82
REMARK   30  A    between atoms: _82  and  _83
REMARK   31  A    between atoms: _83  and  _84
REMARK   32  A    between atoms: _88  and  _90
REMARK   33  A    between atoms: _90  and  _91
REMARK   34  A    between atoms: _90  and  _93
REMARK   35  A    between atoms: _96  and  _98
REMARK   36  A    between atoms: _98  and  _99
REMARK   37  A    between atoms: _98  and  _101
REMARK   38  A    between atoms: _104  and  _106
REMARK   39  A    between atoms: _106  and  _107
REMARK   40  A    between atoms: _106  and  _109
REMARK   41  A    between atoms: _109  and  _110
REMARK   42  A    between atoms: _113  and  _115
REMARK   43  A    between atoms: _115  and  _116
REMARK   44  A    between atoms: _118  and  _120
REMARK   45  A    between atoms: _120  and  _121
REMARK   46  A    between atoms: _120  and  _123
REMARK   47  A    between atoms: _123  and  _124
REMARK   48  A    between atoms: _124  and  _125
REMARK   49  A    between atoms: _125  and  _126
REMARK   50  A    between atoms: _135  and  _137
REMARK   51  A    between atoms: _137  and  _138
REMARK   52  A    between atoms: _137  and  _140
REMARK   53  A    between atoms: _140  and  _141
REMARK   54  A    between atoms: _146  and  _148
REMARK   55  A    between atoms: _148  and  _149
REMARK   56  A    between atoms: _148  and  _151
REMARK   57  A    between atoms: _151  and  _152
REMARK   58  A    between atoms: _152  and  _153
REMARK   59  A    between atoms: _153  and  _154
REMARK   60  A    between atoms: _154  and  _155
REMARK   61  A    between atoms: _159  and  _161
REMARK   62  A    between atoms: _161  and  _162
REMARK   63  A    between atoms: _161  and  _164
REMARK   64  A    between atoms: _164  and  _165
REMARK   65  A    between atoms: _171  and  _173
REMARK   66  A    between atoms: _173  and  _174
REMARK   67  A    between atoms: _173  and  _176
REMARK   68  A    between atoms: _176  and  _177
REMARK   69  A    between atoms: _182  and  _184
REMARK   70  A    between atoms: _184  and  _185
REMARK   71  A    between atoms: _184  and  _187
REMARK   72  A    between atoms: _187  and  _188
REMARK   73  A    between atoms: _193  and  _195
REMARK   74  A    between atoms: _195  and  _196
REMARK   75  A    between atoms: _198  and  _200
REMARK   76  A    between atoms: _200  and  _201
REMARK   77  A    between atoms: _200  and  _203
REMARK   78  A    between atoms: _203  and  _204
REMARK   79  A    between atoms: _204  and  _205
REMARK   80  A    between atoms: _205  and  _206
REMARK   81  A    between atoms: _215  and  _217
REMARK   82  A    between atoms: _217  and  _218
REMARK   83  A    between atoms: _217  and  _220
REMARK   84  A    between atoms: _220  and  _221
REMARK   85  A    between atoms: _225  and  _226
REMARK   86  A    between atoms: _231  and  _233
REMARK   87  A    between atoms: _233  and  _234
REMARK   88  A    between atoms: _237  and  _239
REMARK   89  A    between atoms: _239  and  _240
REMARK   90  A    between atoms: _239  and  _242
REMARK   91  A    between atoms: _242  and  _243
REMARK   92  A    between atoms: _253  and  _255
REMARK   93  A    between atoms: _255  and  _256
REMARK   94  A    between atoms: _255  and  _258
REMARK   95  A    between atoms: _258  and  _259
REMARK   96  A    between atoms: _259  and  _260
REMARK   97  A    between atoms: _263  and  _265
REMARK   98  A    between atoms: _265  and  _266
REMARK   99  A    between atoms: _265  and  _268
REMARK  100  A    between atoms: _268  and  _269
REMARK  101  A    between atoms: _271  and  _273
REMARK  102  A    between atoms: _273  and  _274
REMARK  103  A    between atoms: _273  and  _276
REMARK  104  A    between atoms: _276  and  _277
REMARK  105  A    between atoms: _280  and  _282
REMARK  106  A    between atoms: _282  and  _283
REMARK  107  A    between atoms: _286  and  _288
REMARK  108  A    between atoms: _288  and  _289
REMARK  109  A    between atoms: _288  and  _291
REMARK  110  A    between atoms: _291  and  _292
REMARK  111  A    between atoms: _295  and  _297
REMARK  112  A    between atoms: _297  and  _298
REMARK  113  A    between atoms: _297  and  _300
REMARK  114  A    between atoms: _300  and  _301
REMARK  115  A    between atoms: _301  and  _302
REMARK  116  A    between atoms: _307  and  _309
REMARK  117  A    between atoms: _309  and  _310
REMARK  118  A    between atoms: _313  and  _315
REMARK  119  A    between atoms: _315  and  _316
REMARK  120  A    between atoms: _315  and  _318
REMARK  121  A    between atoms: _318  and  _319
REMARK  122  A    between atoms: _321  and  _323
REMARK  123  A    between atoms: _323  and  _324
REMARK  124  A    between atoms: _326  and  _328
REMARK  125  A    between atoms: _328  and  _329
REMARK  126  A    between atoms: _328  and  _331
REMARK  127  A    between atoms: _331  and  _332
REMARK  128  A    between atoms: _332  and  _333
REMARK  129  A    between atoms: _338  and  _340
REMARK  130  A    between atoms: _340  and  _341
REMARK  131  A    between atoms: _344  and  _345
REMARK  132  A    between atoms: _350  and  _352
REMARK  133  A    between atoms: _352  and  _353
REMARK  134  A    between atoms: _352  and  _355
REMARK  135  A    between atoms: _355  and  _356
REMARK  136  A    between atoms: _361  and  _362
REMARK  137  A    between atoms: _364  and  _366
REMARK  138  A    between atoms: _366  and  _367
REMARK  139  A    between atoms: _366  and  _369
REMARK  140  A    between atoms: _369  and  _370
REMARK  141  A    between atoms: _376  and  _378
REMARK  142  A    between atoms: _378  and  _379
REMARK  143  A    between atoms: _381  and  _383
REMARK  144  A    between atoms: _383  and  _384
REMARK  145  A    between atoms: _383  and  _386
REMARK  146  A    between atoms: _386  and  _387
REMARK  147  A    between atoms: _387  and  _388
REMARK  148  A    between atoms: _393  and  _395
REMARK  149  A    between atoms: _395  and  _396
REMARK  150  A    between atoms: _399  and  _401
REMARK  151  A    between atoms: _401  and  _402
REMARK  152  A    between atoms: _404  and  _406
REMARK  153  A    between atoms: _406  and  _407
REMARK  154  A    between atoms: _406  and  _409
REMARK  155  A    between atoms: _409  and  _410
REMARK  156  A    between atoms: _420  and  _422
REMARK  157  A    between atoms: _422  and  _423
REMARK  158  A    between atoms: _422  and  _425
REMARK  159  A    between atoms: _425  and  _426
REMARK  160  A    between atoms: _432  and  _434
REMARK  161  A    between atoms: _434  and  _435
REMARK  162  A    between atoms: _434  and  _437
REMARK  163  A    between atoms: _440  and  _442
REMARK  164  A    between atoms: _442  and  _443
REMARK  165  A    between atoms: _446  and  _448
REMARK  166  A    between atoms: _448  and  _449
REMARK  167  A    between atoms: _448  and  _451
REMARK  168  A    between atoms: _451  and  _452
REMARK  169  A    between atoms: _452  and  _453
REMARK  170  A    between atoms: _456  and  _458
REMARK  171  A    between atoms: _458  and  _459
REMARK  172  A    between atoms: _458  and  _461
REMARK  173  A    between atoms: _461  and  _462
REMARK  174  A    between atoms: _472  and  _474
REMARK  175  A    between atoms: _474  and  _475
REMARK  176  A    between atoms: _474  and  _477
REMARK  177  A    between atoms: _477  and  _478
REMARK  178  A    between atoms: _478  and  _479
REMARK  179  A    between atoms: _479  and  _480
REMARK  180  A    between atoms: _480  and  _481
REMARK  181  A    between atoms: _485  and  _487
REMARK  182  A    between atoms: _487  and  _488
REMARK  183  A    between atoms: _487  and  _490
REMARK  184  A    between atoms: _490  and  _491
REMARK  185  A    between atoms: _497  and  _499
REMARK  186  A    between atoms: _499  and  _500
REMARK  187  A    between atoms: _499  and  _502
REMARK  188  A    between atoms: _502  and  _503
REMARK  189  A    between atoms: _509  and  _511
REMARK  190  A    between atoms: _511  and  _512
REMARK  191  A    between atoms: _511  and  _514
REMARK  192  A    between atoms: _514  and  _515
REMARK  193  A    between atoms: _515  and  _516
REMARK  194  A    between atoms: _521  and  _523
REMARK  195  A    between atoms: _523  and  _524
REMARK  196  A    between atoms: _527  and  _529
REMARK  197  A    between atoms: _529  and  _530
REMARK  198  A    between atoms: _529  and  _532
REMARK  199  A    between atoms: _532  and  _533
REMARK  200  A    between atoms: _535  and  _537
REMARK  201  A    between atoms: _537  and  _538
REMARK  202  A    between atoms: _540  and  _542
REMARK  203  A    between atoms: _542  and  _543
REMARK  204  A    between atoms: _542  and  _545
REMARK  205  A    between atoms: _545  and  _546
REMARK  206  A    between atoms: _546  and  _547
REMARK  207  A    between atoms: _553  and  _554
REMARK  208  A    between atoms: _559  and  _561
REMARK  209  A    between atoms: _561  and  _562
REMARK  210  A    between atoms: _561  and  _564
REMARK  211  A    between atoms: _564  and  _565
REMARK  212  A    between atoms: _570  and  _571
REMARK  213  A    between atoms: _573  and  _575
REMARK  214  A    between atoms: _575  and  _576
REMARK  215  A    between atoms: _575  and  _578
REMARK  216  A    between atoms: _578  and  _579
REMARK  217  A    between atoms: _579  and  _580
REMARK  218  A    between atoms: _580  and  _581
REMARK  219  A    between atoms: _590  and  _592
REMARK  220  A    between atoms: _592  and  _593
REMARK  221  A    between atoms: _592  and  _595
REMARK  222  A    between atoms: _595  and  _596
REMARK  223  A    between atoms: _601  and  _602
REMARK  224  A    between atoms: _604  and  _606
REMARK  225  A    between atoms: _606  and  _607
REMARK  226  A    between atoms: _606  and  _609
REMARK  227  A    between atoms: _609  and  _610
REMARK  228  A    between atoms: _610  and  _611
REMARK  229  A    between atoms: _614  and  _616
REMARK  230  A    between atoms: _616  and  _617
REMARK  231  A    between atoms: _616  and  _619
REMARK  232  A    between atoms: _619  and  _620
REMARK  233  A    between atoms: _620  and  _621
REMARK  234  A    between atoms: _621  and  _622
REMARK                            x       y       z     vdW  Elec       q    Type
REMARK                         _______ _______ _______ _____ _____    ______ ____
ROOT
ATOM      1  CB  ASN A   1      -0.893  27.364   4.958  0.00  0.00    +0.110 C 
ENDROOT
BRANCH   1   2
ATOM      2  CG  ASN A   1      -0.163  26.341   4.093  0.00  0.00    +0.221 C 
ATOM      3  ND2 ASN A   1       0.522  25.365   4.719  0.00  0.00    -0.329 N 
ATOM      4 HD21 ASN A   1       0.521  25.313   5.758  0.00  0.00    +0.145 HD
ATOM      5 HD22 ASN A   1       1.052  24.663   4.164  0.00  0.00    +0.145 HD
ATOM      6  OD1 ASN A   1      -0.197  26.450   2.877  0.00  0.00    -0.275 OA
ENDBRANCH   1   2
BRANCH   1   7
ATOM      7  CA  ASN A   1      -1.624  28.430   4.109  0.00  0.00    +0.142 C 
BRANCH   7   8
ATOM      8  N   ASN A   1      -2.306  29.398   4.966  0.00  0.00    -0.239 NA
ATOM      9  H   ASN A   1      -3.230  29.157   5.379  0.00  0.00    +0.142 HD
ENDBRANCH   7   8
BRANCH   7  10
ATOM     10  C   ASN A   1      -2.613  27.781   3.159  0.00  0.00    +0.225 C 
ATOM     11  O   ASN A   1      -3.445  26.973   3.583  0.00  0.00    -0.287 OA
ENDBRANCH   7  10
ENDBRANCH   1   7
TORSDOF 4
REMARK  Name = ../refined-set-2016/4f0c/4f0c_pocket.pdb
REMARK  234 active torsions:
REMARK  status: ('A' for Active; 'I' for Inactive)
REMARK    1  A    between atoms: _1  and  _3
REMARK    2  A    between atoms: _3  and  _4
REMARK    3  A    between atoms: _3  and  _6
REMARK    4  A    between atoms: _6  and  _7
REMARK    5  A    between atoms: _12  and  _14
REMARK    6  A    between atoms: _14  and  _15
REMARK    7  A    between atoms: _14  and  _17
REMARK    8  A    between atoms: _17  and  _18
REMARK    9  A    between atoms: _23  and  _25
REMARK   10  A    between atoms: _25  and  _26
REMARK   11  A    between atoms: _25  and  _28
REMARK   12  A    between atoms: _31  and  _33
REMARK   13  A    between atoms: _33  and  _34
REMARK   14  A    between atoms: _37  and  _38
REMARK   15  A    between atoms: _43  and  _45
REMARK   16  A    between atoms: _45  and  _46
REMARK   17  A    between atoms: _45  and  _48
REMARK   18  A    between atoms: _48  and  _49
REMARK   19  A    between atoms: _54  and  _56
REMARK   20  A    between atoms: _56  and  _57
REMARK   21  A    between atoms: _59  and  _61
REMARK   22  A    between atoms: _61  and  _62
REMARK   23  A    between atoms: _61  and  _64
REMARK   24  A    between atoms: _64  and  _65
REMARK   25  A    between atoms: _75  and  _77
REMARK   26  A    between atoms: _77  and  _78
REMARK   27  A    between atoms: _77  and  _80
REMARK   28  A    between atoms: _80  and  _81
REMARK   29  A    between atoms: _81  and  _82
REMARK   30  A    between atoms: _82  and  _83
REMARK   31  A    between atoms: _83  and  _84
REMARK   32  A    between atoms: _88  and  _90
REMARK   33  A    between atoms: _90  and  _91
REMARK   34  A    between atoms: _90  and  _93
REMARK   35  A    between atoms: _96  and  _98
REMARK   36  A    between atoms: _98  and  _99
REMARK   37  A    between atoms: _98  and  _101
REMARK   38  A    between atoms: _104  and  _106
REMARK   39  A    between atoms: _106  and  _107
REMARK   40  A    between atoms: _106  and  _109
REMARK   41  A    between atoms: _109  and  _110
REMARK   42  A    between atoms: _113  and  _115
REMARK   43  A    between atoms: _115  and  _116
REMARK   44  A    between atoms: _118  and  _120
REMARK   45  A    between atoms: _120  and  _121
REMARK   46  A    between atoms: _120  and  _123
REMARK   47  A    between atoms: _123  and  _124
REMARK   48  A    between atoms: _124  and  _125
REMARK   49  A    between atoms: _125  and  _126
REMARK   50  A    between atoms: _135  and  _137
REMARK   51  A    between atoms: _137  and  _138
REMARK   52  A    between atoms: _137  and  _140
REMARK   53  A    between atoms: _140  and  _141
REMARK   54  A    between atoms: _146  and  _148
REMARK   55  A    between atoms: _148  and  _149
REMARK   56  A    between atoms: _148  and  _151
REMARK   57  A    between atoms: _151  and  _152
REMARK   58  A    between atoms: _152  and  _153
REMARK   59  A    between atoms: _153  and  _154
REMARK   60  A    between atoms: _154  and  _155
REMARK   61  A    between atoms: _159  and  _161
REMARK   62  A    between atoms: _161  and  _162
REMARK   63  A    between atoms: _161  and  _164
REMARK   64  A    between atoms: _164  and  _165
REMARK   65  A    between atoms: _171  and  _173
REMARK   66  A    between atoms: _173  and  _174
REMARK   67  A    between atoms: _173  and  _176
REMARK   68  A    between atoms: _176  and  _177
REMARK   69  A    between atoms: _182  and  _184
REMARK   70  A    between atoms: _184  and  _185
REMARK   71  A    between atoms: _184  and  _187
REMARK   72  A    between atoms: _187  and  _188
REMARK   73  A    between atoms: _193  and  _195
REMARK   74  A    between atoms: _195  and  _196
REMARK   75  A    between atoms: _198  and  _200
REMARK   76  A    between atoms: _200  and  _201
REMARK   77  A    between atoms: _200  and  _203
REMARK   78  A    between atoms: _203  and  _204
REMARK   79  A    between atoms: _204  and  _205
REMARK   80  A    between atoms: _205  and  _206
REMARK   81  A    between atoms: _215  and  _217
REMARK   82  A    between atoms: _217  and  _218
REMARK   83  A    between atoms: _217  and  _220
REMARK   84  A    between atoms: _220  and  _221
REMARK   85  A    between atoms: _225  and  _226
REMARK   86  A    between atoms: _231  and  _233
REMARK   87  A    between atoms: _233  and  _234
REMARK   88  A    between atoms: _237  and  _239
REMARK   89  A    between atoms: _239  and  _240
REMARK   90  A    between atoms: _239  and  _242
REMARK   91  A    between atoms: _242  and  _243
REMARK   92  A    between atoms: _253  and  _255
REMARK   93  A    between atoms: _255  and  _256
REMARK   94  A    between atoms: _255  and  _258
REMARK   95  A    between atoms: _258  and  _259
REMARK   96  A    between atoms: _259  and  _260
REMARK   97  A    between atoms: _263  and  _265
REMARK   98  A    between atoms: _265  and  _266
REMARK   99  A    between atoms: _265  and  _268
REMARK  100  A    between atoms: _268  and  _269
REMARK  101  A    between atoms: _271  and  _273
REMARK  102  A    between atoms: _273  and  _274
REMARK  103  A    between atoms: _273  and  _276
REMARK  104  A    between atoms: _276  and  _277
REMARK  105  A    between atoms: _280  and  _282
REMARK  106  A    between atoms: _282  and  _283
REMARK  107  A    between atoms: _286  and  _288
REMARK  108  A    between atoms: _288  and  _289
REMARK  109  A    between atoms: _288  and  _291
REMARK  110  A    between atoms: _291  and  _292
REMARK  111  A    between atoms: _295  and  _297
REMARK  112  A    between atoms: _297  and  _298
REMARK  113  A    between atoms: _297  and  _300
REMARK  114  A    between atoms: _300  and  _301
REMARK  115  A    between atoms: _301  and  _302
REMARK  116  A    between atoms: _307  and  _309
REMARK  117  A    between atoms: _309  and  _310
REMARK  118  A    between atoms: _313  and  _315
REMARK  119  A    between atoms: _315  and  _316
REMARK  120  A    between atoms: _315  and  _318
REMARK  121  A    between atoms: _318  and  _319
REMARK  122  A    between atoms: _321  and  _323
REMARK  123  A    between atoms: _323  and  _324
REMARK  124  A    between atoms: _326  and  _328
REMARK  125  A    between atoms: _328  and  _329
REMARK  126  A    between atoms: _328  and  _331
REMARK  127  A    between atoms: _331  and  _332
REMARK  128  A    between atoms: _332  and  _333
REMARK  129  A    between atoms: _338  and  _340
REMARK  130  A    between atoms: _340  and  _341
REMARK  131  A    between atoms: _344  and  _345
REMARK  132  A    between atoms: _350  and  _352
REMARK  133  A    between atoms: _352  and  _353
REMARK  134  A    between atoms: _352  and  _355
REMARK  135  A    between atoms: _355  and  _356
REMARK  136  A    between atoms: _361  and  _362
REMARK  137  A    between atoms: _364  and  _366
REMARK  138  A    between atoms: _366  and  _367
REMARK  139  A    between atoms: _366  and  _369
REMARK  140  A    between atoms: _369  and  _370
REMARK  141  A    between atoms: _376  and  _378
REMARK  142  A    between atoms: _378  and  _379
REMARK  143  A    between atoms: _381  and  _383
REMARK  144  A    between atoms: _383  and  _384
REMARK  145  A    between atoms: _383  and  _386
REMARK  146  A    between atoms: _386  and  _387
REMARK  147  A    between atoms: _387  and  _388
REMARK  148  A    between atoms: _393  and  _395
REMARK  149  A    between atoms: _395  and  _396
REMARK  150  A    between atoms: _399  and  _401
REMARK  151  A    between atoms: _401  and  _402
REMARK  152  A    between atoms: _404  and  _406
REMARK  153  A    between atoms: _406  and  _407
REMARK  154  A    between atoms: _406  and  _409
REMARK  155  A    between atoms: _409  and  _410
REMARK  156  A    between atoms: _420  and  _422
REMARK  157  A    between atoms: _422  and  _423
REMARK  158  A    between atoms: _422  and  _425
REMARK  159  A    between atoms: _425  and  _426
REMARK  160  A    between atoms: _432  and  _434
REMARK  161  A    between atoms: _434  and  _435
REMARK  162  A    between atoms: _434  and  _437
REMARK  163  A    between atoms: _440  and  _442
REMARK  164  A    between atoms: _442  and  _443
REMARK  165  A    between atoms: _446  and  _448
REMARK  166  A    between atoms: _448  and  _449
REMARK  167  A    between atoms: _448  and  _451
REMARK  168  A    between atoms: _451  and  _452
REMARK  169  A    between atoms: _452  and  _453
REMARK  170  A    between atoms: _456  and  _458
REMARK  171  A    between atoms: _458  and  _459
REMARK  172  A    between atoms: _458  and  _461
REMARK  173  A    between atoms: _461  and  _462
REMARK  174  A    between atoms: _472  and  _474
REMARK  175  A    between atoms: _474  and  _475
REMARK  176  A    between atoms: _474  and  _477
REMARK  177  A    between atoms: _477  and  _478
REMARK  178  A    between atoms: _478  and  _479
REMARK  179  A    between atoms: _479  and  _480
REMARK  180  A    between atoms: _480  and  _481
REMARK  181  A    between atoms: _485  and  _487
REMARK  182  A    between atoms: _487  and  _488
REMARK  183  A    between atoms: _487  and  _490
REMARK  184  A    between atoms: _490  and  _491
REMARK  185  A    between atoms: _497  and  _499
REMARK  186  A    between atoms: _499  and  _500
REMARK  187  A    between atoms: _499  and  _502
REMARK  188  A    between atoms: _502  and  _503
REMARK  189  A    between atoms: _509  and  _511
REMARK  190  A    between atoms: _511  and  _512
REMARK  191  A    between atoms: _511  and  _514
REMARK  192  A    between atoms: _514  and  _515
REMARK  193  A    between atoms: _515  and  _516
REMARK  194  A    between atoms: _521  and  _523
REMARK  195  A    between atoms: _523  and  _524
REMARK  196  A    between atoms: _527  and  _529
REMARK  197  A    between atoms: _529  and  _530
REMARK  198  A    between atoms: _529  and  _532
REMARK  199  A    between atoms: _532  and  _533
REMARK  200  A    between atoms: _535  and  _537
REMARK  201  A    between atoms: _537  and  _538
REMARK  202  A    between atoms: _540  and  _542
REMARK  203  A    between atoms: _542  and  _543
REMARK  204  A    between atoms: _542  and  _545
REMARK  205  A    between atoms: _545  and  _546
REMARK  206  A    between atoms: _546  and  _547
REMARK  207  A    between atoms: _553  and  _554
REMARK  208  A    between atoms: _559  and  _561
REMARK  209  A    between atoms: _561  and  _562
REMARK  210  A    between atoms: _561  and  _564
REMARK  211  A    between atoms: _564  and  _565
REMARK  212  A    between atoms: _570  and  _571
REMARK  213  A    between atoms: _573  and  _575
REMARK  214  A    between atoms: _575  and  _576
REMARK  215  A    between atoms: _575  and  _578
REMARK  216  A    between atoms: _578  and  _579
REMARK  217  A    between atoms: _579  and  _580
REMARK  218  A    between atoms: _580  and  _581
REMARK  219  A    between atoms: _590  and  _592
REMARK  220  A    between atoms: _592  and  _593
REMARK  221  A    between atoms: _592  and  _595
REMARK  222  A    between atoms: _595  and  _596
REMARK  223  A    between atoms: _601  and  _602
REMARK  224  A    between atoms: _604  and  _606
REMARK  225  A    between atoms: _606  and  _607
REMARK  226  A    between atoms: _606  and  _609
REMARK  227  A    between atoms: _609  and  _610
REMARK  228  A    between atoms: _610  and  _611
REMARK  229  A    between atoms: _614  and  _616
REMARK  230  A    between atoms: _616  and  _617
REMARK  231  A    between atoms: _616  and  _619
REMARK  232  A    between atoms: _619  and  _620
REMARK  233  A    between atoms: _620  and  _621
REMARK  234  A    between atoms: _621  and  _622
REMARK                            x       y       z     vdW  Elec       q    Type
REMARK                         _______ _______ _______ _____ _____    ______ ____
ROOT
ATOM      1  CA  ARG A   3      -1.165  21.950   6.472  0.00  0.00    +0.149 C 
ENDROOT
BRANCH   1   4
ATOM      2  C   GLY A   2      -3.250  22.643   5.401  0.00  0.00    +0.243 C 
ATOM      3  O   GLY A   2      -3.858  21.666   5.867  0.00  0.00    -0.273 OA
ATOM      4  N   ARG A   3      -1.955  22.831   5.599  0.00  0.00    -0.297 N 
ATOM      5  H   ARG A   3      -1.482  23.626   5.123  0.00  0.00    +0.150 HD
BRANCH   2   6
ATOM      6  CA  GLY A   2      -3.963  23.710   4.555  0.00  0.00    +0.176 C 
BRANCH   6   8
ATOM      7  C   ASN A   1      -2.782  23.391   2.437  0.00  0.00    +0.239 C 
ATOM      8  N   GLY A   2      -3.141  24.207   3.443  0.00  0.00    -0.296 N 
ATOM      9  H   GLY A   2      -2.834  25.201   3.434  0.00  0.00    +0.150 HD
ATOM     10  O   ASN A   1      -3.023  22.181   2.441  0.00  0.00    -0.274 OA
BRANCH   7  11
ATOM     11  CA  ASN A   1      -2.026  24.030   1.247  0.00  0.00    +0.154 C 
BRANCH  11  12
ATOM     12  N   ASN A   1      -2.246  25.482   1.187  0.00  0.00    -0.238 NA
ATOM     13  H   ASN A   1      -1.447  26.115   1.395  0.00  0.00    +0.142 HD
ENDBRANCH  11  12
BRANCH  11  14
ATOM     14  CB  ASN A   1      -0.536  23.672   1.304  0.00  0.00    +0.111 C 
BRANCH  14  15
ATOM     15  CG  ASN A   1      -0.281  22.168   1.087  0.00  0.00    +0.221 C 
ATOM     16  ND2 ASN A   1       0.665  21.583   1.827  0.00  0.00    -0.329 N 
ATOM     17 HD21 ASN A   1       1.229  22.149   2.493  0.00  0.00    +0.145 HD
ATOM     18 HD22 ASN A   1       0.838  20.561   1.737  0.00  0.00    +0.145 HD
ATOM     19  OD1 ASN A   1      -0.971  21.547   0.290  0.00  0.00    -0.275 OA
ENDBRANCH  14  15
ENDBRANCH  11  14
ENDBRANCH   7  11
ENDBRANCH   6   8
ENDBRANCH   2   6
ENDBRANCH   1   4
BRANCH   1  20
ATOM     20  C   ARG A   3      -0.350  22.811   7.431  0.00  0.00    +0.241 C 
ATOM     21  N   ILE A   4      -0.067  22.280   8.618  0.00  0.00    -0.297 N 
ATOM     22  H   ILE A   4      -0.447  21.345   8.869  0.00  0.00    +0.150 HD
ATOM     23  O   ARG A   3      -0.020  23.953   7.124  0.00  0.00    -0.273 OA
BRANCH  21  24
ATOM     24  CA  ILE A   4       0.773  23.000   9.569  0.00  0.00    +0.149 C 
BRANCH  24  25
ATOM     25  C   ILE A   4       2.233  22.532   9.404  0.00  0.00    +0.244 C 
ATOM     26  N   PRO A   5       3.211  23.375   9.772  0.00  0.00    -0.272 N 
ATOM     27  CA  PRO A   5       3.058  24.686  10.416  0.00  0.00    +0.152 C 
ATOM     28  CB  PRO A   5       4.390  24.864  11.135  0.00  0.00    +0.031 C 
ATOM     29  CG  PRO A   5       5.367  24.202  10.179  0.00  0.00    +0.024 C 
ATOM     30  CD  PRO A   5       4.620  22.945   9.746  0.00  0.00    +0.094 C 
ATOM     31  O   ILE A   4       2.480  21.403   8.982  0.00  0.00    -0.273 OA
BRANCH  27  32
ATOM     32  C   PRO A   5       2.873  25.880   9.462  0.00  0.00    +0.241 C 
ATOM     33  N   ALA A   6       2.465  26.993  10.058  0.00  0.00    -0.298 N 
ATOM     34  H   ALA A   6       2.069  26.935  11.018  0.00  0.00    +0.150 HD
ATOM     35  O   PRO A   5       3.089  25.803   8.239  0.00  0.00    -0.273 OA
BRANCH  33  36
ATOM     36  CA  ALA A   6       2.555  28.293   9.409  0.00  0.00    +0.137 C 
ATOM     37  CB  ALA A   6       1.181  28.740   8.817  0.00  0.00    +0.030 C 
BRANCH  36  38
ATOM     38  C   ALA A   6       2.986  29.237  10.521  0.00  0.00    +0.227 C 
ATOM     39  O   ALA A   6       2.732  28.968  11.705  0.00  0.00    -0.286 OA
ENDBRANCH  36  38
ENDBRANCH  33  36
ENDBRANCH  27  32
ENDBRANCH  24  25
BRANCH  24  40
ATOM     40  CB  ILE A   4       0.252  22.820  11.043  0.00  0.00    +0.027 C 
ATOM     41  CG2 ILE A   4      -1.224  23.235  11.166  0.00  0.00    +0.002 C 
BRANCH  40  42
ATOM     42  CG1 ILE A   4       0.492  21.408  11.530  0.00  0.00    +0.002 C 
ATOM     43  CD1 ILE A   4       1.773  21.279  12.301  0.00  0.00    +0.000 C 
ENDBRANCH  40  42
ENDBRANCH  24  40
ENDBRANCH  21  24
ENDBRANCH   1  20
BRANCH   1  44
ATOM     44  CB  ARG A   3      -0.244  21.032   5.648  0.00  0.00    +0.033 C 
BRANCH  44  45
ATOM     45  CG  ARG A   3      -1.009  20.084   4.719  0.00  0.00    +0.045 C 
BRANCH  45  46
ATOM     46  CD  ARG A   3      -0.023  19.102   4.021  0.00  0.00    +0.174 C 
BRANCH  46  47
ATOM     47  NE  ARG A   3       0.037  17.784   4.667  0.00  0.00    -0.265 N 
ATOM     48  HE  ARG A   3      -0.638  17.593   5.434  0.00  0.00    +0.259 HD
ATOM     49  CZ  ARG A   3       0.896  16.812   4.341  0.00  0.00    +0.342 C 
ATOM     50  NH2 ARG A   3       0.861  15.644   4.973  0.00  0.00    -0.292 N 
ATOM     51 HH21 ARG A   3       0.163  15.481   5.726  0.00  0.00    +0.255 HD
ATOM     52 HH22 ARG A   3       1.532  14.893   4.714  0.00  0.00    +0.255 HD
ATOM     53  NH1 ARG A   3       1.816  17.021   3.412  0.00  0.00    -0.292 N 
ATOM     54 HH11 ARG A   3       2.483  16.263   3.161  0.00  0.00    +0.255 HD
ATOM     55 HH12 ARG A   3       1.872  17.943   2.934  0.00  0.00    +0.255 HD
ENDBRANCH  46  47
ENDBRANCH  45  46
ENDBRANCH  44  45
ENDBRANCH   1  44
TORSDOF 19
REMARK  Name = ../refined-set-2016/4f0c/4f0c_pocket.pdb
REMARK  234 active torsions:
REMARK  status: ('A' for Active; 'I' for Inactive)
REMARK    1  A    between atoms: _1  and  _3
REMARK    2  A    between atoms: _3  and  _4
REMARK    3  A    between atoms: _3  and  _6
REMARK    4  A    between atoms: _6  and  _7
REMARK    5  A    between atoms: _12  and  _14
REMARK    6  A    between atoms: _14  and  _15
REMARK    7  A    between atoms: _14  and  _17
REMARK    8  A    between atoms: _17  and  _18
REMARK    9  A    between atoms: _23  and  _25
REMARK   10  A    between atoms: _25  and  _26
REMARK   11  A    between atoms: _25  and  _28
REMARK   12  A    between atoms: _31  and  _33
REMARK   13  A    between atoms: _33  and  _34
REMARK   14  A    between atoms: _37  and  _38
REMARK   15  A    between atoms: _43  and  _45
REMARK   16  A    between atoms: _45  and  _46
REMARK   17  A    between atoms: _45  and  _48
REMARK   18  A    between atoms: _48  and  _49
REMARK   19  A    between atoms: _54  and  _56
REMARK   20  A    between atoms: _56  and  _57
REMARK   21  A    between atoms: _59  and  _61
REMARK   22  A    between atoms: _61  and  _62
REMARK   23  A    between atoms: _61  and  _64
REMARK   24  A    between atoms: _64  and  _65
REMARK   25  A    between atoms: _75  and  _77
REMARK   26  A    between atoms: _77  and  _78
REMARK   27  A    between atoms: _77  and  _80
REMARK   28  A    between atoms: _80  and  _81
REMARK   29  A    between atoms: _81  and  _82
REMARK   30  A    between atoms: _82  and  _83
REMARK   31  A    between atoms: _83  and  _84
REMARK   32  A    between atoms: _88  and  _90
REMARK   33  A    between atoms: _90  and  _91
REMARK   34  A    between atoms: _90  and  _93
REMARK   35  A    between atoms: _96  and  _98
REMARK   36  A    between atoms: _98  and  _99
REMARK   37  A    between atoms: _98  and  _101
REMARK   38  A    between atoms: _104  and  _106
REMARK   39  A    between atoms: _106  and  _107
REMARK   40  A    between atoms: _106  and  _109
REMARK   41  A    between atoms: _109  and  _110
REMARK   42  A    between atoms: _113  and  _115
REMARK   43  A    between atoms: _115  and  _116
REMARK   44  A    between atoms: _118  and  _120
REMARK   45  A    between atoms: _120  and  _121
REMARK   46  A    between atoms: _120  and  _123
REMARK   47  A    between atoms: _123  and  _124
REMARK   48  A    between atoms: _124  and  _125
REMARK   49  A    between atoms: _125  and  _126
REMARK   50  A    between atoms: _135  and  _137
REMARK   51  A    between atoms: _137  and  _138
REMARK   52  A    between atoms: _137  and  _140
REMARK   53  A    between atoms: _140  and  _141
REMARK   54  A    between atoms: _146  and  _148
REMARK   55  A    between atoms: _148  and  _149
REMARK   56  A    between atoms: _148  and  _151
REMARK   57  A    between atoms: _151  and  _152
REMARK   58  A    between atoms: _152  and  _153
REMARK   59  A    between atoms: _153  and  _154
REMARK   60  A    between atoms: _154  and  _155
REMARK   61  A    between atoms: _159  and  _161
REMARK   62  A    between atoms: _161  and  _162
REMARK   63  A    between atoms: _161  and  _164
REMARK   64  A    between atoms: _164  and  _165
REMARK   65  A    between atoms: _171  and  _173
REMARK   66  A    between atoms: _173  and  _174
REMARK   67  A    between atoms: _173  and  _176
REMARK   68  A    between atoms: _176  and  _177
REMARK   69  A    between atoms: _182  and  _184
REMARK   70  A    between atoms: _184  and  _185
REMARK   71  A    between atoms: _184  and  _187
REMARK   72  A    between atoms: _187  and  _188
REMARK   73  A    between atoms: _193  and  _195
REMARK   74  A    between atoms: _195  and  _196
REMARK   75  A    between atoms: _198  and  _200
REMARK   76  A    between atoms: _200  and  _201
REMARK   77  A    between atoms: _200  and  _203
REMARK   78  A    between atoms: _203  and  _204
REMARK   79  A    between atoms: _204  and  _205
REMARK   80  A    between atoms: _205  and  _206
REMARK   81  A    between atoms: _215  and  _217
REMARK   82  A    between atoms: _217  and  _218
REMARK   83  A    between atoms: _217  and  _220
REMARK   84  A    between atoms: _220  and  _221
REMARK   85  A    between atoms: _225  and  _226
REMARK   86  A    between atoms: _231  and  _233
REMARK   87  A    between atoms: _233  and  _234
REMARK   88  A    between atoms: _237  and  _239
REMARK   89  A    between atoms: _239  and  _240
REMARK   90  A    between atoms: _239  and  _242
REMARK   91  A    between atoms: _242  and  _243
REMARK   92  A    between atoms: _253  and  _255
REMARK   93  A    between atoms: _255  and  _256
REMARK   94  A    between atoms: _255  and  _258
REMARK   95  A    between atoms: _258  and  _259
REMARK   96  A    between atoms: _259  and  _260
REMARK   97  A    between atoms: _263  and  _265
REMARK   98  A    between atoms: _265  and  _266
REMARK   99  A    between atoms: _265  and  _268
REMARK  100  A    between atoms: _268  and  _269
REMARK  101  A    between atoms: _271  and  _273
REMARK  102  A    between atoms: _273  and  _274
REMARK  103  A    between atoms: _273  and  _276
REMARK  104  A    between atoms: _276  and  _277
REMARK  105  A    between atoms: _280  and  _282
REMARK  106  A    between atoms: _282  and  _283
REMARK  107  A    between atoms: _286  and  _288
REMARK  108  A    between atoms: _288  and  _289
REMARK  109  A    between atoms: _288  and  _291
REMARK  110  A    between atoms: _291  and  _292
REMARK  111  A    between atoms: _295  and  _297
REMARK  112  A    between atoms: _297  and  _298
REMARK  113  A    between atoms: _297  and  _300
REMARK  114  A    between atoms: _300  and  _301
REMARK  115  A    between atoms: _301  and  _302
REMARK  116  A    between atoms: _307  and  _309
REMARK  117  A    between atoms: _309  and  _310
REMARK  118  A    between atoms: _313  and  _315
REMARK  119  A    between atoms: _315  and  _316
REMARK  120  A    between atoms: _315  and  _318
REMARK  121  A    between atoms: _318  and  _319
REMARK  122  A    between atoms: _321  and  _323
REMARK  123  A    between atoms: _323  and  _324
REMARK  124  A    between atoms: _326  and  _328
REMARK  125  A    between atoms: _328  and  _329
REMARK  126  A    between atoms: _328  and  _331
REMARK  127  A    between atoms: _331  and  _332
REMARK  128  A    between atoms: _332  and  _333
REMARK  129  A    between atoms: _338  and  _340
REMARK  130  A    between atoms: _340  and  _341
REMARK  131  A    between atoms: _344  and  _345
REMARK  132  A    between atoms: _350  and  _352
REMARK  133  A    between atoms: _352  and  _353
REMARK  134  A    between atoms: _352  and  _355
REMARK  135  A    between atoms: _355  and  _356
REMARK  136  A    between atoms: _361  and  _362
REMARK  137  A    between atoms: _364  and  _366
REMARK  138  A    between atoms: _366  and  _367
REMARK  139  A    between atoms: _366  and  _369
REMARK  140  A    between atoms: _369  and  _370
REMARK  141  A    between atoms: _376  and  _378
REMARK  142  A    between atoms: _378  and  _379
REMARK  143  A    between atoms: _381  and  _383
REMARK  144  A    between atoms: _383  and  _384
REMARK  145  A    between atoms: _383  and  _386
REMARK  146  A    between atoms: _386  and  _387
REMARK  147  A    between atoms: _387  and  _388
REMARK  148  A    between atoms: _393  and  _395
REMARK  149  A    between atoms: _395  and  _396
REMARK  150  A    between atoms: _399  and  _401
REMARK  151  A    between atoms: _401  and  _402
REMARK  152  A    between atoms: _404  and  _406
REMARK  153  A    between atoms: _406  and  _407
REMARK  154  A    between atoms: _406  and  _409
REMARK  155  A    between atoms: _409  and  _410
REMARK  156  A    between atoms: _420  and  _422
REMARK  157  A    between atoms: _422  and  _423
REMARK  158  A    between atoms: _422  and  _425
REMARK  159  A    between atoms: _425  and  _426
REMARK  160  A    between atoms: _432  and  _434
REMARK  161  A    between atoms: _434  and  _435
REMARK  162  A    between atoms: _434  and  _437
REMARK  163  A    between atoms: _440  and  _442
REMARK  164  A    between atoms: _442  and  _443
REMARK  165  A    between atoms: _446  and  _448
REMARK  166  A    between atoms: _448  and  _449
REMARK  167  A    between atoms: _448  and  _451
REMARK  168  A    between atoms: _451  and  _452
REMARK  169  A    between atoms: _452  and  _453
REMARK  170  A    between atoms: _456  and  _458
REMARK  171  A    between atoms: _458  and  _459
REMARK  172  A    between atoms: _458  and  _461
REMARK  173  A    between atoms: _461  and  _462
REMARK  174  A    between atoms: _472  and  _474
REMARK  175  A    between atoms: _474  and  _475
REMARK  176  A    between atoms: _474  and  _477
REMARK  177  A    between atoms: _477  and  _478
REMARK  178  A    between atoms: _478  and  _479
REMARK  179  A    between atoms: _479  and  _480
REMARK  180  A    between atoms: _480  and  _481
REMARK  181  A    between atoms: _485  and  _487
REMARK  182  A    between atoms: _487  and  _488
REMARK  183  A    between atoms: _487  and  _490
REMARK  184  A    between atoms: _490  and  _491
REMARK  185  A    between atoms: _497  and  _499
REMARK  186  A    between atoms: _499  and  _500
REMARK  187  A    between atoms: _499  and  _502
REMARK  188  A    between atoms: _502  and  _503
REMARK  189  A    between atoms: _509  and  _511
REMARK  190  A    between atoms: _511  and  _512
REMARK  191  A    between atoms: _511  and  _514
REMARK  192  A    between atoms: _514  and  _515
REMARK  193  A    between atoms: _515  and  _516
REMARK  194  A    between atoms: _521  and  _523
REMARK  195  A    between atoms: _523  and  _524
REMARK  196  A    between atoms: _527  and  _529
REMARK  197  A    between atoms: _529  and  _530
REMARK  198  A    between atoms: _529  and  _532
REMARK  199  A    between atoms: _532  and  _533
REMARK  200  A    between atoms: _535  and  _537
REMARK  201  A    between atoms: _537  and  _538
REMARK  202  A    between atoms: _540  and  _542
REMARK  203  A    between atoms: _542  and  _543
REMARK  204  A    between atoms: _542  and  _545
REMARK  205  A    between atoms: _545  and  _546
REMARK  206  A    between atoms: _546  and  _547
REMARK  207  A    between atoms: _553  and  _554
REMARK  208  A    between atoms: _559  and  _561
REMARK  209  A    between atoms: _561  and  _562
REMARK  210  A    between atoms: _561  and  _564
REMARK  211  A    between atoms: _564  and  _565
REMARK  212  A    between atoms: _570  and  _571
REMARK  213  A    between atoms: _573  and  _575
REMARK  214  A    between atoms: _575  and  _576
REMARK  215  A    between atoms: _575  and  _578
REMARK  216  A    between atoms: _578  and  _579
REMARK  217  A    between atoms: _579  and  _580
REMARK  218  A    between atoms: _580  and  _581
REMARK  219  A    between atoms: _590  and  _592
REMARK  220  A    between atoms: _592  and  _593
REMARK  221  A    between atoms: _592  and  _595
REMARK  222  A    between atoms: _595  and  _596
REMARK  223  A    between atoms: _601  and  _602
REMARK  224  A    between atoms: _604  and  _606
REMARK  225  A    between atoms: _606  and  _607
REMARK  226  A    between atoms: _606  and  _609
REMARK  227  A    between atoms: _609  and  _610
REMARK  228  A    between atoms: _610  and  _611
REMARK  229  A    between atoms: _614  and  _616
REMARK  230  A    between atoms: _616  and  _617
REMARK  231  A    between atoms: _616  and  _619
REMARK  232  A    between atoms: _619  and  _620
REMARK  233  A    between atoms: _620  and  _621
REMARK  234  A    between atoms: _621  and  _622
REMARK                            x       y       z     vdW  Elec       q    Type
REMARK                         _______ _______ _______ _____ _____    ______ ____
ROOT
ATOM      1  CA  SER A   3       8.378  24.166   8.008  0.00  0.00    +0.178 C 
ENDROOT
BRANCH   1   3
ATOM      2  C   GLU A   2       7.450  25.144   5.975  0.00  0.00    +0.241 C 
ATOM      3  N   SER A   3       7.464  24.157   6.862  0.00  0.00    -0.295 N 
ATOM      4  H   SER A   3       6.810  23.357   6.741  0.00  0.00    +0.150 HD
ATOM      5  O   GLU A   2       8.181  26.142   6.057  0.00  0.00    -0.273 OA
BRANCH   2   6
ATOM      6  CA  GLU A   2       6.445  25.004   4.841  0.00  0.00    +0.149 C 
BRANCH   6   8
ATOM      7  C   TRP A   1       5.528  27.310   4.917  0.00  0.00    +0.239 C 
ATOM      8  N   GLU A   2       5.372  25.989   5.052  0.00  0.00    -0.297 N 
ATOM      9  H   GLU A   2       4.433  25.635   5.323  0.00  0.00    +0.150 HD
ATOM     10  O   TRP A   1       6.432  27.826   4.262  0.00  0.00    -0.274 OA
BRANCH   7  11
ATOM     11  CA  TRP A   1       4.496  28.220   5.618  0.00  0.00    +0.149 C 
BRANCH  11  12
ATOM     12  N   TRP A   1       4.818  29.615   5.321  0.00  0.00    -0.238 NA
ATOM     13  H   TRP A   1       4.938  29.915   4.333  0.00  0.00    +0.142 HD
ENDBRANCH  11  12
BRANCH  11  14
ATOM     14  CB  TRP A   1       3.026  27.910   5.266  0.00  0.00    +0.054 C 
BRANCH  14  15
ATOM     15  CG  TRP A   1       2.578  28.347   3.825  0.00  0.00    -0.002 A 
ATOM     16  CD1 TRP A   1       2.036  29.578   3.438  0.00  0.00    +0.068 A 
ATOM     17  NE1 TRP A   1       1.753  29.555   2.063  0.00  0.00    -0.352 N 
ATOM     18  CE2 TRP A   1       2.103  28.324   1.557  0.00  0.00    +0.056 A 
ATOM     19  CZ2 TRP A   1       1.991  27.831   0.245  0.00  0.00    +0.017 A 
ATOM     20  CH2 TRP A   1       2.397  26.539   0.009  0.00  0.00    +0.001 A 
ATOM     21  CZ3 TRP A   1       2.902  25.720   1.057  0.00  0.00    +0.000 A 
ATOM     22  CE3 TRP A   1       3.011  26.211   2.370  0.00  0.00    +0.001 A 
ATOM     23  HE1 TRP A   1       1.345  30.340   1.516  0.00  0.00    +0.166 HD
ATOM     24  CD2 TRP A   1       2.614  27.536   2.630  0.00  0.00    +0.013 A 
ENDBRANCH  14  15
ENDBRANCH  11  14
ENDBRANCH   7  11
ENDBRANCH   6   8
BRANCH   6  25
ATOM     25  CB  GLU A   2       7.141  25.097   3.469  0.00  0.00    +0.041 C 
BRANCH  25  26
ATOM     26  CG  GLU A   2       6.303  24.529   2.304  0.00  0.00    +0.116 C 
BRANCH  26  27
ATOM     27  CD  GLU A   2       5.950  23.048   2.494  0.00  0.00    +0.365 C 
ATOM     28  OE2 GLU A   2       6.819  22.252   2.895  0.00  0.00    -0.246 OA
ATOM     29  OE1 GLU A   2       4.774  22.680   2.252  0.00  0.00    -0.246 OA
ENDBRANCH  26  27
ENDBRANCH  25  26
ENDBRANCH   6  25
ENDBRANCH   2   6
ENDBRANCH   1   3
BRANCH   1  30
ATOM     30  C   SER A   3       9.815  24.593   7.654  0.00  0.00    +0.243 C 
ATOM     31  O   SER A   3      10.402  25.409   8.366  0.00  0.00    -0.273 OA
ATOM     32  N   ASP A   4      10.386  24.068   6.560  0.00  0.00    -0.296 N 
ATOM     33  H   ASP A   4       9.845  23.463   5.910  0.00  0.00    +0.150 HD
BRANCH  32  34
ATOM     34  CA  ASP A   4      11.795  24.375   6.311  0.00  0.00    +0.160 C 
BRANCH  34  35
ATOM     35  C   ASP A   4      11.981  25.783   5.738  0.00  0.00    +0.241 C 
ATOM     36  O   ASP A   4      13.045  26.408   5.925  0.00  0.00    -0.273 OA
ATOM     37  N   ALA A   5      10.977  26.279   5.016  0.00  0.00    -0.297 N 
ATOM     38  H   ALA A   5      10.165  25.684   4.753  0.00  0.00    +0.150 HD
BRANCH  37  39
ATOM     39  CA  ALA A   5      11.045  27.691   4.599  0.00  0.00    +0.149 C 
ATOM     40  CB  ALA A   5       9.972  28.012   3.567  0.00  0.00    +0.031 C 
BRANCH  39  41
ATOM     41  C   ALA A   5      10.926  28.629   5.796  0.00  0.00    +0.241 C 
ATOM     42  N   ILE A   6      10.086  28.262   6.760  0.00  0.00    -0.298 N 
ATOM     43  H   ILE A   6       9.475  27.433   6.616  0.00  0.00    +0.150 HD
ATOM     44  O   ALA A   5      11.568  29.683   5.836  0.00  0.00    -0.273 OA
BRANCH  42  45
ATOM     45  CA  ILE A   6      10.006  29.004   8.021  0.00  0.00    +0.137 C 
BRANCH  45  46
ATOM     46  CB  ILE A   6       8.927  28.391   8.956  0.00  0.00    +0.026 C 
ATOM     47  CG2 ILE A   6       8.929  29.071  10.358  0.00  0.00    +0.002 C 
BRANCH  46  48
ATOM     48  CG1 ILE A   6       7.543  28.544   8.307  0.00  0.00    +0.002 C 
ATOM     49  CD1 ILE A   6       6.461  27.745   9.023  0.00  0.00    +0.000 C 
ENDBRANCH  46  48
ENDBRANCH  45  46
BRANCH  45  50
ATOM     50  C   ILE A   6      11.368  29.060   8.738  0.00  0.00    +0.227 C 
ATOM     51  O   ILE A   6      11.774  30.135   9.239  0.00  0.00    -0.286 OA
ENDBRANCH  45  50
ENDBRANCH  42  45
ENDBRANCH  39  41
ENDBRANCH  37  39
ENDBRANCH  34  35
BRANCH  34  52
ATOM     52  CB  ASP A   4      12.471  23.337   5.377  0.00  0.00    +0.143 C 
BRANCH  52  53
ATOM     53  CG  ASP A   4      12.717  22.006   6.064  0.00  0.00    +0.367 C 
ATOM     54  OD2 ASP A   4      12.417  21.851   7.290  0.00  0.00    -0.246 OA
ATOM     55  OD1 ASP A   4      13.252  21.115   5.384  0.00  0.00    -0.246 OA
ENDBRANCH  52  53
ENDBRANCH  34  52
ENDBRANCH  32  34
ENDBRANCH   1  30
BRANCH   1  56
ATOM     56  CB  SER A   3       8.379  22.798   8.740  0.00  0.00    +0.166 C 
BRANCH  56  57
ATOM     57  OG  SER A   3       8.799  21.705   7.906  0.00  0.00    -0.380 OA
ATOM     58  H   SER A   3       8.187  21.628   7.132  0.00  0.00    +0.211 HD
ENDBRANCH  56  57
ENDBRANCH   1  56
TORSDOF 23
REMARK  Name = ../refined-set-2016/4f0c/4f0c_pocket.pdb
REMARK  234 active torsions:
REMARK  status: ('A' for Active; 'I' for Inactive)
REMARK    1  A    between atoms: _1  and  _3
REMARK    2  A    between atoms: _3  and  _4
REMARK    3  A    between atoms: _3  and  _6
REMARK    4  A    between atoms: _6  and  _7
REMARK    5  A    between atoms: _12  and  _14
REMARK    6  A    between atoms: _14  and  _15
REMARK    7  A    between atoms: _14  and  _17
REMARK    8  A    between atoms: _17  and  _18
REMARK    9  A    between atoms: _23  and  _25
REMARK   10  A    between atoms: _25  and  _26
REMARK   11  A    between atoms: _25  and  _28
REMARK   12  A    between atoms: _31  and  _33
REMARK   13  A    between atoms: _33  and  _34
REMARK   14  A    between atoms: _37  and  _38
REMARK   15  A    between atoms: _43  and  _45
REMARK   16  A    between atoms: _45  and  _46
REMARK   17  A    between atoms: _45  and  _48
REMARK   18  A    between atoms: _48  and  _49
REMARK   19  A    between atoms: _54  and  _56
REMARK   20  A    between atoms: _56  and  _57
REMARK   21  A    between atoms: _59  and  _61
REMARK   22  A    between atoms: _61  and  _62
REMARK   23  A    between atoms: _61  and  _64
REMARK   24  A    between atoms: _64  and  _65
REMARK   25  A    between atoms: _75  and  _77
REMARK   26  A    between atoms: _77  and  _78
REMARK   27  A    between atoms: _77  and  _80
REMARK   28  A    between atoms: _80  and  _81
REMARK   29  A    between atoms: _81  and  _82
REMARK   30  A    between atoms: _82  and  _83
REMARK   31  A    between atoms: _83  and  _84
REMARK   32  A    between atoms: _88  and  _90
REMARK   33  A    between atoms: _90  and  _91
REMARK   34  A    between atoms: _90  and  _93
REMARK   35  A    between atoms: _96  and  _98
REMARK   36  A    between atoms: _98  and  _99
REMARK   37  A    between atoms: _98  and  _101
REMARK   38  A    between atoms: _104  and  _106
REMARK   39  A    between atoms: _106  and  _107
REMARK   40  A    between atoms: _106  and  _109
REMARK   41  A    between atoms: _109  and  _110
REMARK   42  A    between atoms: _113  and  _115
REMARK   43  A    between atoms: _115  and  _116
REMARK   44  A    between atoms: _118  and  _120
REMARK   45  A    between atoms: _120  and  _121
REMARK   46  A    between atoms: _120  and  _123
REMARK   47  A    between atoms: _123  and  _124
REMARK   48  A    between atoms: _124  and  _125
REMARK   49  A    between atoms: _125  and  _126
REMARK   50  A    between atoms: _135  and  _137
REMARK   51  A    between atoms: _137  and  _138
REMARK   52  A    between atoms: _137  and  _140
REMARK   53  A    between atoms: _140  and  _141
REMARK   54  A    between atoms: _146  and  _148
REMARK   55  A    between atoms: _148  and  _149
REMARK   56  A    between atoms: _148  and  _151
REMARK   57  A    between atoms: _151  and  _152
REMARK   58  A    between atoms: _152  and  _153
REMARK   59  A    between atoms: _153  and  _154
REMARK   60  A    between atoms: _154  and  _155
REMARK   61  A    between atoms: _159  and  _161
REMARK   62  A    between atoms: _161  and  _162
REMARK   63  A    between atoms: _161  and  _164
REMARK   64  A    between atoms: _164  and  _165
REMARK   65  A    between atoms: _171  and  _173
REMARK   66  A    between atoms: _173  and  _174
REMARK   67  A    between atoms: _173  and  _176
REMARK   68  A    between atoms: _176  and  _177
REMARK   69  A    between atoms: _182  and  _184
REMARK   70  A    between atoms: _184  and  _185
REMARK   71  A    between atoms: _184  and  _187
REMARK   72  A    between atoms: _187  and  _188
REMARK   73  A    between atoms: _193  and  _195
REMARK   74  A    between atoms: _195  and  _196
REMARK   75  A    between atoms: _198  and  _200
REMARK   76  A    between atoms: _200  and  _201
REMARK   77  A    between atoms: _200  and  _203
REMARK   78  A    between atoms: _203  and  _204
REMARK   79  A    between atoms: _204  and  _205
REMARK   80  A    between atoms: _205  and  _206
REMARK   81  A    between atoms: _215  and  _217
REMARK   82  A    between atoms: _217  and  _218
REMARK   83  A    between atoms: _217  and  _220
REMARK   84  A    between atoms: _220  and  _221
REMARK   85  A    between atoms: _225  and  _226
REMARK   86  A    between atoms: _231  and  _233
REMARK   87  A    between atoms: _233  and  _234
REMARK   88  A    between atoms: _237  and  _239
REMARK   89  A    between atoms: _239  and  _240
REMARK   90  A    between atoms: _239  and  _242
REMARK   91  A    between atoms: _242  and  _243
REMARK   92  A    between atoms: _253  and  _255
REMARK   93  A    between atoms: _255  and  _256
REMARK   94  A    between atoms: _255  and  _258
REMARK   95  A    between atoms: _258  and  _259
REMARK   96  A    between atoms: _259  and  _260
REMARK   97  A    between atoms: _263  and  _265
REMARK   98  A    between atoms: _265  and  _266
REMARK   99  A    between atoms: _265  and  _268
REMARK  100  A    between atoms: _268  and  _269
REMARK  101  A    between atoms: _271  and  _273
REMARK  102  A    between atoms: _273  and  _274
REMARK  103  A    between atoms: _273  and  _276
REMARK  104  A    between atoms: _276  and  _277
REMARK  105  A    between atoms: _280  and  _282
REMARK  106  A    between atoms: _282  and  _283
REMARK  107  A    between atoms: _286  and  _288
REMARK  108  A    between atoms: _288  and  _289
REMARK  109  A    between atoms: _288  and  _291
REMARK  110  A    between atoms: _291  and  _292
REMARK  111  A    between atoms: _295  and  _297
REMARK  112  A    between atoms: _297  and  _298
REMARK  113  A    between atoms: _297  and  _300
REMARK  114  A    between atoms: _300  and  _301
REMARK  115  A    between atoms: _301  and  _302
REMARK  116  A    between atoms: _307  and  _309
REMARK  117  A    between atoms: _309  and  _310
REMARK  118  A    between atoms: _313  and  _315
REMARK  119  A    between atoms: _315  and  _316
REMARK  120  A    between atoms: _315  and  _318
REMARK  121  A    between atoms: _318  and  _319
REMARK  122  A    between atoms: _321  and  _323
REMARK  123  A    between atoms: _323  and  _324
REMARK  124  A    between atoms: _326  and  _328
REMARK  125  A    between atoms: _328  and  _329
REMARK  126  A    between atoms: _328  and  _331
REMARK  127  A    between atoms: _331  and  _332
REMARK  128  A    between atoms: _332  and  _333
REMARK  129  A    between atoms: _338  and  _340
REMARK  130  A    between atoms: _340  and  _341
REMARK  131  A    between atoms: _344  and  _345
REMARK  132  A    between atoms: _350  and  _352
REMARK  133  A    between atoms: _352  and  _353
REMARK  134  A    between atoms: _352  and  _355
REMARK  135  A    between atoms: _355  and  _356
REMARK  136  A    between atoms: _361  and  _362
REMARK  137  A    between atoms: _364  and  _366
REMARK  138  A    between atoms: _366  and  _367
REMARK  139  A    between atoms: _366  and  _369
REMARK  140  A    between atoms: _369  and  _370
REMARK  141  A    between atoms: _376  and  _378
REMARK  142  A    between atoms: _378  and  _379
REMARK  143  A    between atoms: _381  and  _383
REMARK  144  A    between atoms: _383  and  _384
REMARK  145  A    between atoms: _383  and  _386
REMARK  146  A    between atoms: _386  and  _387
REMARK  147  A    between atoms: _387  and  _388
REMARK  148  A    between atoms: _393  and  _395
REMARK  149  A    between atoms: _395  and  _396
REMARK  150  A    between atoms: _399  and  _401
REMARK  151  A    between atoms: _401  and  _402
REMARK  152  A    between atoms: _404  and  _406
REMARK  153  A    between atoms: _406  and  _407
REMARK  154  A    between atoms: _406  and  _409
REMARK  155  A    between atoms: _409  and  _410
REMARK  156  A    between atoms: _420  and  _422
REMARK  157  A    between atoms: _422  and  _423
REMARK  158  A    between atoms: _422  and  _425
REMARK  159  A    between atoms: _425  and  _426
REMARK  160  A    between atoms: _432  and  _434
REMARK  161  A    between atoms: _434  and  _435
REMARK  162  A    between atoms: _434  and  _437
REMARK  163  A    between atoms: _440  and  _442
REMARK  164  A    between atoms: _442  and  _443
REMARK  165  A    between atoms: _446  and  _448
REMARK  166  A    between atoms: _448  and  _449
REMARK  167  A    between atoms: _448  and  _451
REMARK  168  A    between atoms: _451  and  _452
REMARK  169  A    between atoms: _452  and  _453
REMARK  170  A    between atoms: _456  and  _458
REMARK  171  A    between atoms: _458  and  _459
REMARK  172  A    between atoms: _458  and  _461
REMARK  173  A    between atoms: _461  and  _462
REMARK  174  A    between atoms: _472  and  _474
REMARK  175  A    between atoms: _474  and  _475
REMARK  176  A    between atoms: _474  and  _477
REMARK  177  A    between atoms: _477  and  _478
REMARK  178  A    between atoms: _478  and  _479
REMARK  179  A    between atoms: _479  and  _480
REMARK  180  A    between atoms: _480  and  _481
REMARK  181  A    between atoms: _485  and  _487
REMARK  182  A    between atoms: _487  and  _488
REMARK  183  A    between atoms: _487  and  _490
REMARK  184  A    between atoms: _490  and  _491
REMARK  185  A    between atoms: _497  and  _499
REMARK  186  A    between atoms: _499  and  _500
REMARK  187  A    between atoms: _499  and  _502
REMARK  188  A    between atoms: _502  and  _503
REMARK  189  A    between atoms: _509  and  _511
REMARK  190  A    between atoms: _511  and  _512
REMARK  191  A    between atoms: _511  and  _514
REMARK  192  A    between atoms: _514  and  _515
REMARK  193  A    between atoms: _515  and  _516
REMARK  194  A    between atoms: _521  and  _523
REMARK  195  A    between atoms: _523  and  _524
REMARK  196  A    between atoms: _527  and  _529
REMARK  197  A    between atoms: _529  and  _530
REMARK  198  A    between atoms: _529  and  _532
REMARK  199  A    between atoms: _532  and  _533
REMARK  200  A    between atoms: _535  and  _537
REMARK  201  A    between atoms: _537  and  _538
REMARK  202  A    between atoms: _540  and  _542
REMARK  203  A    between atoms: _542  and  _543
REMARK  204  A    between atoms: _542  and  _545
REMARK  205  A    between atoms: _545  and  _546
REMARK  206  A    between atoms: _546  and  _547
REMARK  207  A    between atoms: _553  and  _554
REMARK  208  A    between atoms: _559  and  _561
REMARK  209  A    between atoms: _561  and  _562
REMARK  210  A    between atoms: _561  and  _564
REMARK  211  A    between atoms: _564  and  _565
REMARK  212  A    between atoms: _570  and  _571
REMARK  213  A    between atoms: _573  and  _575
REMARK  214  A    between atoms: _575  and  _576
REMARK  215  A    between atoms: _575  and  _578
REMARK  216  A    between atoms: _578  and  _579
REMARK  217  A    between atoms: _579  and  _580
REMARK  218  A    between atoms: _580  and  _581
REMARK  219  A    between atoms: _590  and  _592
REMARK  220  A    between atoms: _592  and  _593
REMARK  221  A    between atoms: _592  and  _595
REMARK  222  A    between atoms: _595  and  _596
REMARK  223  A    between atoms: _601  and  _602
REMARK  224  A    between atoms: _604  and  _606
REMARK  225  A    between atoms: _606  and  _607
REMARK  226  A    between atoms: _606  and  _609
REMARK  227  A    between atoms: _609  and  _610
REMARK  228  A    between atoms: _610  and  _611
REMARK  229  A    between atoms: _614  and  _616
REMARK  230  A    between atoms: _616  and  _617
REMARK  231  A    between atoms: _616  and  _619
REMARK  232  A    between atoms: _619  and  _620
REMARK  233  A    between atoms: _620  and  _621
REMARK  234  A    between atoms: _621  and  _622
REMARK                            x       y       z     vdW  Elec       q    Type
REMARK                         _______ _______ _______ _____ _____    ______ ____
ROOT
ATOM      1  C   TYR A   8       8.620   8.518   4.810  0.00  0.00    +0.241 C 
ATOM      2  N   PHE A   9       9.215   9.218   5.763  0.00  0.00    -0.297 N 
ATOM      3  H   PHE A   9       9.806  10.038   5.518  0.00  0.00    +0.150 HD
ATOM      4  O   TYR A   8       7.967   7.511   5.043  0.00  0.00    -0.273 OA
ENDROOT
BRANCH   1   5
ATOM      5  CA  TYR A   8       8.808   9.010   3.375  0.00  0.00    +0.153 C 
BRANCH   5   8
ATOM      6  C   PRO A   7       7.497  11.047   3.353  0.00  0.00    +0.241 C 
ATOM      7  O   PRO A   7       6.454  10.443   3.568  0.00  0.00    -0.273 OA
ATOM      8  N   TYR A   8       8.688  10.461   3.317  0.00  0.00    -0.297 N 
ATOM      9  H   TYR A   8       9.546  11.045   3.247  0.00  0.00    +0.150 HD
BRANCH   6  13
ATOM     10  C   GLY A   6       8.513  13.151   5.304  0.00  0.00    +0.246 C 
ATOM     11  O   GLY A   6       7.747  12.416   5.908  0.00  0.00    -0.273 OA
ATOM     12  N   PRO A   7       8.527  13.216   3.955  0.00  0.00    -0.272 N 
ATOM     13  CA  PRO A   7       7.436  12.572   3.226  0.00  0.00    +0.152 C 
ATOM     14  CB  PRO A   7       7.667  13.023   1.769  0.00  0.00    +0.031 C 
ATOM     15  CG  PRO A   7       8.354  14.386   1.913  0.00  0.00    +0.024 C 
ATOM     16  CD  PRO A   7       9.336  14.082   3.069  0.00  0.00    +0.094 C 
BRANCH  10  17
ATOM     17  CA  GLY A   6       9.523  14.024   6.068  0.00  0.00    +0.176 C 
BRANCH  17  19
ATOM     18  C   GLN A   5      11.463  12.616   5.501  0.00  0.00    +0.241 C 
ATOM     19  N   GLY A   6      10.937  13.830   5.712  0.00  0.00    -0.295 N 
ATOM     20  H   GLY A   6      11.550  14.665   5.621  0.00  0.00    +0.150 HD
ATOM     21  O   GLN A   5      10.824  11.577   5.614  0.00  0.00    -0.273 OA
BRANCH  18  22
ATOM     22  CA  GLN A   5      12.963  12.534   5.168  0.00  0.00    +0.149 C 
BRANCH  22  24
ATOM     23  C   GLY A   4      13.364  12.182   2.798  0.00  0.00    +0.243 C 
ATOM     24  N   GLN A   5      13.254  13.047   3.812  0.00  0.00    -0.297 N 
ATOM     25  H   GLN A   5      13.372  14.067   3.649  0.00  0.00    +0.150 HD
ATOM     26  O   GLY A   4      13.328  10.978   2.969  0.00  0.00    -0.273 OA
BRANCH  23  27
ATOM     27  CA  GLY A   4      13.552  12.733   1.385  0.00  0.00    +0.176 C 
BRANCH  27  29
ATOM     28  C   SER A   3      11.979  14.346   0.491  0.00  0.00    +0.243 C 
ATOM     29  N   GLY A   4      13.031  14.096   1.256  0.00  0.00    -0.295 N 
ATOM     30  H   GLY A   4      13.491  14.874   1.770  0.00  0.00    +0.150 HD
ATOM     31  O   SER A   3      11.307  13.448  -0.006  0.00  0.00    -0.273 OA
BRANCH  28  32
ATOM     32  CA  SER A   3      11.663  15.822   0.230  0.00  0.00    +0.178 C 
BRANCH  32  35
ATOM     33  C   ALA A   2      11.345  17.182   2.226  0.00  0.00    +0.241 C 
ATOM     34  O   ALA A   2      10.126  16.907   2.275  0.00  0.00    -0.273 OA
ATOM     35  N   SER A   3      12.169  16.668   1.318  0.00  0.00    -0.295 N 
ATOM     36  H   SER A   3      13.188  16.868   1.379  0.00  0.00    +0.150 HD
BRANCH  33  37
ATOM     37  CA  ALA A   2      11.952  18.179   3.217  0.00  0.00    +0.149 C 
ATOM     38  CB  ALA A   2      11.779  19.612   2.682  0.00  0.00    +0.031 C 
BRANCH  37  41
ATOM     39  C   GLN A   1      13.707  16.844   4.249  0.00  0.00    +0.238 C 
ATOM     40  O   GLN A   1      12.884  15.962   4.544  0.00  0.00    -0.274 OA
ATOM     41  N   ALA A   2      13.363  17.928   3.558  0.00  0.00    -0.297 N 
ATOM     42  H   ALA A   2      14.095  18.602   3.257  0.00  0.00    +0.150 HD
BRANCH  39  43
ATOM     43  CA  GLN A   1      15.171  16.772   4.732  0.00  0.00    +0.145 C 
BRANCH  43  44
ATOM     44  N   GLN A   1      16.062  17.037   3.597  0.00  0.00    -0.238 NA
ATOM     45  H   GLN A   1      16.733  17.831   3.631  0.00  0.00    +0.142 HD
ENDBRANCH  43  44
BRANCH  43  46
ATOM     46  CB  GLN A   1      15.380  17.814   5.846  0.00  0.00    +0.036 C 
BRANCH  46  47
ATOM     47  CG  GLN A   1      14.639  17.447   7.150  0.00  0.00    +0.087 C 
BRANCH  47  48
ATOM     48  CD  GLN A   1      13.125  17.721   7.057  0.00  0.00    +0.219 C 
ATOM     49  NE2 GLN A   1      12.302  16.760   7.525  0.00  0.00    -0.329 N 
ATOM     50 HE21 GLN A   1      12.698  15.884   7.921  0.00  0.00    +0.145 HD
ATOM     51 HE22 GLN A   1      11.271  16.895   7.490  0.00  0.00    +0.145 HD
ATOM     52  OE1 GLN A   1      12.704  18.780   6.577  0.00  0.00    -0.275 OA
ENDBRANCH  47  48
ENDBRANCH  46  47
ENDBRANCH  43  46
ENDBRANCH  39  43
ENDBRANCH  37  41
ENDBRANCH  33  37
ENDBRANCH  32  35
BRANCH  32  53
ATOM     53  CB  SER A   3      12.261  16.266  -1.130  0.00  0.00    +0.166 C 
BRANCH  53  54
ATOM     54  OG  SER A   3      13.679  16.100  -1.165  0.00  0.00    -0.380 OA
ATOM     55  H   SER A   3      14.092  16.646  -0.450  0.00  0.00    +0.211 HD
ENDBRANCH  53  54
ENDBRANCH  32  53
ENDBRANCH  28  32
ENDBRANCH  27  29
ENDBRANCH  23  27
ENDBRANCH  22  24
BRANCH  22  56
ATOM     56  CB  GLN A   5      13.791  13.228   6.250  0.00  0.00    +0.039 C 
BRANCH  56  57
ATOM     57  CG  GLN A   5      13.623  12.589   7.661  0.00  0.00    +0.087 C 
BRANCH  57  58
ATOM     58  CD  GLN A   5      14.022  13.524   8.799  0.00  0.00    +0.219 C 
ATOM     59  NE2 GLN A   5      14.750  12.981   9.788  0.00  0.00    -0.329 N 
ATOM     60 HE21 GLN A   5      15.025  13.558  10.608  0.00  0.00    +0.145 HD
ATOM     61 HE22 GLN A   5      15.039  11.983   9.734  0.00  0.00    +0.145 HD
ATOM     62  OE1 GLN A   5      13.657  14.693   8.815  0.00  0.00    -0.275 OA
ENDBRANCH  57  58
ENDBRANCH  56  57
ENDBRANCH  22  56
ENDBRANCH  18  22
ENDBRANCH  17  19
ENDBRANCH  10  17
ENDBRANCH   6  13
ENDBRANCH   5   8
BRANCH   5  63
ATOM     63  CB  TYR A   8      10.193   8.574   2.857  0.00  0.00    +0.055 C 
BRANCH  63  64
ATOM     64  CG  TYR A   8      10.294   8.776   1.359  0.00  0.00    -0.020 A 
ATOM     65  CD2 TYR A   8      10.806   9.959   0.829  0.00  0.00    -0.001 A 
ATOM     66  CE2 TYR A   8      10.880  10.166  -0.568  0.00  0.00    +0.036 A 
ATOM     67  CZ  TYR A   8      10.440   9.182  -1.442  0.00  0.00    +0.134 A 
ATOM     68  CE1 TYR A   8       9.926   7.990  -0.939  0.00  0.00    +0.036 A 
ATOM     69  CD1 TYR A   8       9.836   7.803   0.470  0.00  0.00    -0.001 A 
BRANCH  67  70
ATOM     70  OH  TYR A   8      10.517   9.392  -2.820  0.00  0.00    -0.506 OA
ATOM     71  HH  TYR A   8      10.164   8.598  -3.294  0.00  0.00    +0.292 HD
ENDBRANCH  67  70
ENDBRANCH  63  64
ENDBRANCH   5  63
ENDBRANCH   1   5
BRANCH   2  72
ATOM     72  CA  PHE A   9       9.034   8.828   7.178  0.00  0.00    +0.153 C 
BRANCH  72  73
ATOM     73  C   PHE A   9       7.533   8.944   7.499  0.00  0.00    +0.241 C 
ATOM     74  O   PHE A   9       6.948   8.118   8.226  0.00  0.00    -0.273 OA
ATOM     75  N   GLY A  10       6.905   9.973   6.953  0.00  0.00    -0.295 N 
ATOM     76  H   GLY A  10       7.449  10.657   6.389  0.00  0.00    +0.150 HD
BRANCH  75  77
ATOM     77  CA  GLY A  10       5.477  10.173   7.121  0.00  0.00    +0.176 C 
BRANCH  77  78
ATOM     78  C   GLY A  10       4.609   9.054   6.560  0.00  0.00    +0.243 C 
ATOM     79  O   GLY A  10       3.556   8.753   7.134  0.00  0.00    -0.273 OA
ATOM     80  N   GLN A  11       5.023   8.433   5.450  0.00  0.00    -0.297 N 
ATOM     81  H   GLN A  11       5.904   8.725   4.981  0.00  0.00    +0.150 HD
BRANCH  80  82
ATOM     82  CA  GLN A  11       4.217   7.331   4.901  0.00  0.00    +0.149 C 
BRANCH  82  83
ATOM     83  C   GLN A  11       4.346   6.127   5.828  0.00  0.00    +0.241 C 
ATOM     84  N   ALA A  12       5.552   5.876   6.361  0.00  0.00    -0.297 N 
ATOM     85  H   ALA A  12       6.386   6.408   6.040  0.00  0.00    +0.150 HD
ATOM     86  O   GLN A  11       3.358   5.440   6.064  0.00  0.00    -0.273 OA
BRANCH  84  87
ATOM     87  CA  ALA A  12       5.688   4.844   7.403  0.00  0.00    +0.149 C 
ATOM     88  CB  ALA A  12       7.116   4.741   7.903  0.00  0.00    +0.031 C 
BRANCH  87  89
ATOM     89  C   ALA A  12       4.747   5.134   8.574  0.00  0.00    +0.241 C 
ATOM     90  N   GLY A  13       4.740   6.384   9.040  0.00  0.00    -0.295 N 
ATOM     91  H   GLY A  13       5.379   7.082   8.608  0.00  0.00    +0.150 HD
ATOM     92  O   ALA A  12       4.043   4.247   9.027  0.00  0.00    -0.273 OA
BRANCH  90  93
ATOM     93  CA  GLY A  13       3.875   6.808  10.127  0.00  0.00    +0.176 C 
BRANCH  93  94
ATOM     94  C   GLY A  13       2.400   6.562   9.829  0.00  0.00    +0.243 C 
ATOM     95  O   GLY A  13       1.659   6.052  10.680  0.00  0.00    -0.273 OA
ATOM     96  N   TRP A  14       1.985   6.919   8.616  0.00  0.00    -0.297 N 
ATOM     97  H   TRP A  14       2.663   7.363   7.964  0.00  0.00    +0.150 HD
BRANCH  96  98
ATOM     98  CA  TRP A  14       0.609   6.709   8.168  0.00  0.00    +0.153 C 
BRANCH  98  99
ATOM     99  C   TRP A  14       0.249   5.233   8.245  0.00  0.00    +0.241 C 
ATOM    100  O   TRP A  14      -0.677   4.852   8.970  0.00  0.00    -0.273 OA
ATOM    101  N   PHE A  15       0.971   4.398   7.506  0.00  0.00    -0.298 N 
ATOM    102  H   PHE A  15       1.782   4.752   6.960  0.00  0.00    +0.150 HD
BRANCH 101 103
ATOM    103  CA  PHE A  15       0.618   2.971   7.463  0.00  0.00    +0.141 C 
BRANCH 103 104
ATOM    104  C   PHE A  15       0.816   2.193   8.784  0.00  0.00    +0.227 C 
ATOM    105  O   PHE A  15       0.174   1.157   8.991  0.00  0.00    -0.286 OA
ENDBRANCH 103 104
BRANCH 103 106
ATOM    106  CB  PHE A  15       1.282   2.267   6.272  0.00  0.00    +0.054 C 
BRANCH 106 107
ATOM    107  CG  PHE A  15       0.734   2.700   4.943  0.00  0.00    -0.020 A 
ATOM    108  CD2 PHE A  15      -0.532   2.276   4.528  0.00  0.00    -0.004 A 
ATOM    109  CE2 PHE A  15      -1.056   2.683   3.305  0.00  0.00    -0.000 A 
ATOM    110  CZ  PHE A  15      -0.316   3.533   2.485  0.00  0.00    -0.000 A 
ATOM    111  CE1 PHE A  15       0.940   3.964   2.886  0.00  0.00    -0.000 A 
ATOM    112  CD1 PHE A  15       1.462   3.552   4.114  0.00  0.00    -0.004 A 
ENDBRANCH 106 107
ENDBRANCH 103 106
ENDBRANCH 101 103
ENDBRANCH  98  99
BRANCH  98 113
ATOM    113  CB  TRP A  14       0.399   7.206   6.733  0.00  0.00    +0.057 C 
BRANCH 113 114
ATOM    114  CG  TRP A  14      -1.018   7.036   6.238  0.00  0.00    -0.002 A 
ATOM    115  CD2 TRP A  14      -2.159   7.808   6.644  0.00  0.00    +0.013 A 
ATOM    116  CE3 TRP A  14      -2.339   8.877   7.530  0.00  0.00    +0.001 A 
ATOM    117  CZ3 TRP A  14      -3.615   9.411   7.680  0.00  0.00    +0.000 A 
ATOM    118  CH2 TRP A  14      -4.700   8.901   6.960  0.00  0.00    +0.001 A 
ATOM    119  CZ2 TRP A  14      -4.555   7.854   6.090  0.00  0.00    +0.017 A 
ATOM    120  CE2 TRP A  14      -3.275   7.311   5.943  0.00  0.00    +0.056 A 
ATOM    121  NE1 TRP A  14      -2.838   6.279   5.154  0.00  0.00    -0.352 N 
ATOM    122  HE1 TRP A  14      -3.433   5.706   4.523  0.00  0.00    +0.166 HD
ATOM    123  CD1 TRP A  14      -1.474   6.125   5.335  0.00  0.00    +0.068 A 
ENDBRANCH 113 114
ENDBRANCH  98 113
ENDBRANCH  96  98
ENDBRANCH  93  94
ENDBRANCH  90  93
ENDBRANCH  87  89
ENDBRANCH  84  87
ENDBRANCH  82  83
BRANCH  82 124
ATOM    124  CB  GLN A  11       4.634   6.936   3.483  0.00  0.00    +0.039 C 
BRANCH 124 125
ATOM    125  CG  GLN A  11       4.544   8.065   2.467  0.00  0.00    +0.087 C 
BRANCH 125 126
ATOM    126  CD  GLN A  11       3.340   8.924   2.702  0.00  0.00    +0.219 C 
ATOM    127  NE2 GLN A  11       3.583  10.174   3.121  0.00  0.00    -0.329 N 
ATOM    128 HE21 GLN A  11       2.792  10.826   3.297  0.00  0.00    +0.145 HD
ATOM    129 HE22 GLN A  11       4.562  10.491   3.270  0.00  0.00    +0.145 HD
ATOM    130  OE1 GLN A  11       2.196   8.490   2.507  0.00  0.00    -0.275 OA
ENDBRANCH 125 126
ENDBRANCH 124 125
ENDBRANCH  82 124
ENDBRANCH  80  82
ENDBRANCH  77  78
ENDBRANCH  75  77
ENDBRANCH  72  73
BRANCH  72 131
ATOM    131  CB  PHE A   9       9.841   9.733   8.129  0.00  0.00    +0.055 C 
BRANCH 131 132
ATOM    132  CG  PHE A   9      11.327   9.459   8.179  0.00  0.00    -0.020 A 
ATOM    133  CD2 PHE A   9      12.010   9.551   9.402  0.00  0.00    -0.004 A 
ATOM    134  CE2 PHE A   9      13.394   9.361   9.493  0.00  0.00    -0.000 A 
ATOM    135  CZ  PHE A   9      14.127   9.056   8.334  0.00  0.00    -0.000 A 
ATOM    136  CE1 PHE A   9      13.459   8.962   7.101  0.00  0.00    -0.000 A 
ATOM    137  CD1 PHE A   9      12.067   9.179   7.021  0.00  0.00    -0.004 A 
ENDBRANCH 131 132
ENDBRANCH  72 131
ENDBRANCH   2  72
TORSDOF 49
REMARK  Name = ../refined-set-2016/4f0c/4f0c_pocket.pdb
REMARK  234 active torsions:
REMARK  status: ('A' for Active; 'I' for Inactive)
REMARK    1  A    between atoms: _1  and  _3
REMARK    2  A    between atoms: _3  and  _4
REMARK    3  A    between atoms: _3  and  _6
REMARK    4  A    between atoms: _6  and  _7
REMARK    5  A    between atoms: _12  and  _14
REMARK    6  A    between atoms: _14  and  _15
REMARK    7  A    between atoms: _14  and  _17
REMARK    8  A    between atoms: _17  and  _18
REMARK    9  A    between atoms: _23  and  _25
REMARK   10  A    between atoms: _25  and  _26
REMARK   11  A    between atoms: _25  and  _28
REMARK   12  A    between atoms: _31  and  _33
REMARK   13  A    between atoms: _33  and  _34
REMARK   14  A    between atoms: _37  and  _38
REMARK   15  A    between atoms: _43  and  _45
REMARK   16  A    between atoms: _45  and  _46
REMARK   17  A    between atoms: _45  and  _48
REMARK   18  A    between atoms: _48  and  _49
REMARK   19  A    between atoms: _54  and  _56
REMARK   20  A    between atoms: _56  and  _57
REMARK   21  A    between atoms: _59  and  _61
REMARK   22  A    between atoms: _61  and  _62
REMARK   23  A    between atoms: _61  and  _64
REMARK   24  A    between atoms: _64  and  _65
REMARK   25  A    between atoms: _75  and  _77
REMARK   26  A    between atoms: _77  and  _78
REMARK   27  A    between atoms: _77  and  _80
REMARK   28  A    between atoms: _80  and  _81
REMARK   29  A    between atoms: _81  and  _82
REMARK   30  A    between atoms: _82  and  _83
REMARK   31  A    between atoms: _83  and  _84
REMARK   32  A    between atoms: _88  and  _90
REMARK   33  A    between atoms: _90  and  _91
REMARK   34  A    between atoms: _90  and  _93
REMARK   35  A    between atoms: _96  and  _98
REMARK   36  A    between atoms: _98  and  _99
REMARK   37  A    between atoms: _98  and  _101
REMARK   38  A    between atoms: _104  and  _106
REMARK   39  A    between atoms: _106  and  _107
REMARK   40  A    between atoms: _106  and  _109
REMARK   41  A    between atoms: _109  and  _110
REMARK   42  A    between atoms: _113  and  _115
REMARK   43  A    between atoms: _115  and  _116
REMARK   44  A    between atoms: _118  and  _120
REMARK   45  A    between atoms: _120  and  _121
REMARK   46  A    between atoms: _120  and  _123
REMARK   47  A    between atoms: _123  and  _124
REMARK   48  A    between atoms: _124  and  _125
REMARK   49  A    between atoms: _125  and  _126
REMARK   50  A    between atoms: _135  and  _137
REMARK   51  A    between atoms: _137  and  _138
REMARK   52  A    between atoms: _137  and  _140
REMARK   53  A    between atoms: _140  and  _141
REMARK   54  A    between atoms: _146  and  _148
REMARK   55  A    between atoms: _148  and  _149
REMARK   56  A    between atoms: _148  and  _151
REMARK   57  A    between atoms: _151  and  _152
REMARK   58  A    between atoms: _152  and  _153
REMARK   59  A    between atoms: _153  and  _154
REMARK   60  A    between atoms: _154  and  _155
REMARK   61  A    between atoms: _159  and  _161
REMARK   62  A    between atoms: _161  and  _162
REMARK   63  A    between atoms: _161  and  _164
REMARK   64  A    between atoms: _164  and  _165
REMARK   65  A    between atoms: _171  and  _173
REMARK   66  A    between atoms: _173  and  _174
REMARK   67  A    between atoms: _173  and  _176
REMARK   68  A    between atoms: _176  and  _177
REMARK   69  A    between atoms: _182  and  _184
REMARK   70  A    between atoms: _184  and  _185
REMARK   71  A    between atoms: _184  and  _187
REMARK   72  A    between atoms: _187  and  _188
REMARK   73  A    between atoms: _193  and  _195
REMARK   74  A    between atoms: _195  and  _196
REMARK   75  A    between atoms: _198  and  _200
REMARK   76  A    between atoms: _200  and  _201
REMARK   77  A    between atoms: _200  and  _203
REMARK   78  A    between atoms: _203  and  _204
REMARK   79  A    between atoms: _204  and  _205
REMARK   80  A    between atoms: _205  and  _206
REMARK   81  A    between atoms: _215  and  _217
REMARK   82  A    between atoms: _217  and  _218
REMARK   83  A    between atoms: _217  and  _220
REMARK   84  A    between atoms: _220  and  _221
REMARK   85  A    between atoms: _225  and  _226
REMARK   86  A    between atoms: _231  and  _233
REMARK   87  A    between atoms: _233  and  _234
REMARK   88  A    between atoms: _237  and  _239
REMARK   89  A    between atoms: _239  and  _240
REMARK   90  A    between atoms: _239  and  _242
REMARK   91  A    between atoms: _242  and  _243
REMARK   92  A    between atoms: _253  and  _255
REMARK   93  A    between atoms: _255  and  _256
REMARK   94  A    between atoms: _255  and  _258
REMARK   95  A    between atoms: _258  and  _259
REMARK   96  A    between atoms: _259  and  _260
REMARK   97  A    between atoms: _263  and  _265
REMARK   98  A    between atoms: _265  and  _266
REMARK   99  A    between atoms: _265  and  _268
REMARK  100  A    between atoms: _268  and  _269
REMARK  101  A    between atoms: _271  and  _273
REMARK  102  A    between atoms: _273  and  _274
REMARK  103  A    between atoms: _273  and  _276
REMARK  104  A    between atoms: _276  and  _277
REMARK  105  A    between atoms: _280  and  _282
REMARK  106  A    between atoms: _282  and  _283
REMARK  107  A    between atoms: _286  and  _288
REMARK  108  A    between atoms: _288  and  _289
REMARK  109  A    between atoms: _288  and  _291
REMARK  110  A    between atoms: _291  and  _292
REMARK  111  A    between atoms: _295  and  _297
REMARK  112  A    between atoms: _297  and  _298
REMARK  113  A    between atoms: _297  and  _300
REMARK  114  A    between atoms: _300  and  _301
REMARK  115  A    between atoms: _301  and  _302
REMARK  116  A    between atoms: _307  and  _309
REMARK  117  A    between atoms: _309  and  _310
REMARK  118  A    between atoms: _313  and  _315
REMARK  119  A    between atoms: _315  and  _316
REMARK  120  A    between atoms: _315  and  _318
REMARK  121  A    between atoms: _318  and  _319
REMARK  122  A    between atoms: _321  and  _323
REMARK  123  A    between atoms: _323  and  _324
REMARK  124  A    between atoms: _326  and  _328
REMARK  125  A    between atoms: _328  and  _329
REMARK  126  A    between atoms: _328  and  _331
REMARK  127  A    between atoms: _331  and  _332
REMARK  128  A    between atoms: _332  and  _333
REMARK  129  A    between atoms: _338  and  _340
REMARK  130  A    between atoms: _340  and  _341
REMARK  131  A    between atoms: _344  and  _345
REMARK  132  A    between atoms: _350  and  _352
REMARK  133  A    between atoms: _352  and  _353
REMARK  134  A    between atoms: _352  and  _355
REMARK  135  A    between atoms: _355  and  _356
REMARK  136  A    between atoms: _361  and  _362
REMARK  137  A    between atoms: _364  and  _366
REMARK  138  A    between atoms: _366  and  _367
REMARK  139  A    between atoms: _366  and  _369
REMARK  140  A    between atoms: _369  and  _370
REMARK  141  A    between atoms: _376  and  _378
REMARK  142  A    between atoms: _378  and  _379
REMARK  143  A    between atoms: _381  and  _383
REMARK  144  A    between atoms: _383  and  _384
REMARK  145  A    between atoms: _383  and  _386
REMARK  146  A    between atoms: _386  and  _387
REMARK  147  A    between atoms: _387  and  _388
REMARK  148  A    between atoms: _393  and  _395
REMARK  149  A    between atoms: _395  and  _396
REMARK  150  A    between atoms: _399  and  _401
REMARK  151  A    between atoms: _401  and  _402
REMARK  152  A    between atoms: _404  and  _406
REMARK  153  A    between atoms: _406  and  _407
REMARK  154  A    between atoms: _406  and  _409
REMARK  155  A    between atoms: _409  and  _410
REMARK  156  A    between atoms: _420  and  _422
REMARK  157  A    between atoms: _422  and  _423
REMARK  158  A    between atoms: _422  and  _425
REMARK  159  A    between atoms: _425  and  _426
REMARK  160  A    between atoms: _432  and  _434
REMARK  161  A    between atoms: _434  and  _435
REMARK  162  A    between atoms: _434  and  _437
REMARK  163  A    between atoms: _440  and  _442
REMARK  164  A    between atoms: _442  and  _443
REMARK  165  A    between atoms: _446  and  _448
REMARK  166  A    between atoms: _448  and  _449
REMARK  167  A    between atoms: _448  and  _451
REMARK  168  A    between atoms: _451  and  _452
REMARK  169  A    between atoms: _452  and  _453
REMARK  170  A    between atoms: _456  and  _458
REMARK  171  A    between atoms: _458  and  _459
REMARK  172  A    between atoms: _458  and  _461
REMARK  173  A    between atoms: _461  and  _462
REMARK  174  A    between atoms: _472  and  _474
REMARK  175  A    between atoms: _474  and  _475
REMARK  176  A    between atoms: _474  and  _477
REMARK  177  A    between atoms: _477  and  _478
REMARK  178  A    between atoms: _478  and  _479
REMARK  179  A    between atoms: _479  and  _480
REMARK  180  A    between atoms: _480  and  _481
REMARK  181  A    between atoms: _485  and  _487
REMARK  182  A    between atoms: _487  and  _488
REMARK  183  A    between atoms: _487  and  _490
REMARK  184  A    between atoms: _490  and  _491
REMARK  185  A    between atoms: _497  and  _499
REMARK  186  A    between atoms: _499  and  _500
REMARK  187  A    between atoms: _499  and  _502
REMARK  188  A    between atoms: _502  and  _503
REMARK  189  A    between atoms: _509  and  _511
REMARK  190  A    between atoms: _511  and  _512
REMARK  191  A    between atoms: _511  and  _514
REMARK  192  A    between atoms: _514  and  _515
REMARK  193  A    between atoms: _515  and  _516
REMARK  194  A    between atoms: _521  and  _523
REMARK  195  A    between atoms: _523  and  _524
REMARK  196  A    between atoms: _527  and  _529
REMARK  197  A    between atoms: _529  and  _530
REMARK  198  A    between atoms: _529  and  _532
REMARK  199  A    between atoms: _532  and  _533
REMARK  200  A    between atoms: _535  and  _537
REMARK  201  A    between atoms: _537  and  _538
REMARK  202  A    between atoms: _540  and  _542
REMARK  203  A    between atoms: _542  and  _543
REMARK  204  A    between atoms: _542  and  _545
REMARK  205  A    between atoms: _545  and  _546
REMARK  206  A    between atoms: _546  and  _547
REMARK  207  A    between atoms: _553  and  _554
REMARK  208  A    between atoms: _559  and  _561
REMARK  209  A    between atoms: _561  and  _562
REMARK  210  A    between atoms: _561  and  _564
REMARK  211  A    between atoms: _564  and  _565
REMARK  212  A    between atoms: _570  and  _571
REMARK  213  A    between atoms: _573  and  _575
REMARK  214  A    between atoms: _575  and  _576
REMARK  215  A    between atoms: _575  and  _578
REMARK  216  A    between atoms: _578  and  _579
REMARK  217  A    between atoms: _579  and  _580
REMARK  218  A    between atoms: _580  and  _581
REMARK  219  A    between atoms: _590  and  _592
REMARK  220  A    between atoms: _592  and  _593
REMARK  221  A    between atoms: _592  and  _595
REMARK  222  A    between atoms: _595  and  _596
REMARK  223  A    between atoms: _601  and  _602
REMARK  224  A    between atoms: _604  and  _606
REMARK  225  A    between atoms: _606  and  _607
REMARK  226  A    between atoms: _606  and  _609
REMARK  227  A    between atoms: _609  and  _610
REMARK  228  A    between atoms: _610  and  _611
REMARK  229  A    between atoms: _614  and  _616
REMARK  230  A    between atoms: _616  and  _617
REMARK  231  A    between atoms: _616  and  _619
REMARK  232  A    between atoms: _619  and  _620
REMARK  233  A    between atoms: _620  and  _621
REMARK  234  A    between atoms: _621  and  _622
REMARK                            x       y       z     vdW  Elec       q    Type
REMARK                         _______ _______ _______ _____ _____    ______ ____
ROOT
ATOM      1  C   VAL A   1      -2.698   7.391  11.549  0.00  0.00    +0.238 C 
ATOM      2  O   VAL A   1      -3.651   8.136  11.797  0.00  0.00    -0.274 OA
ATOM      3  N   ALA A   2      -2.714   6.514  10.555  0.00  0.00    -0.298 N 
ATOM      4  H   ALA A   2      -1.859   5.961  10.342  0.00  0.00    +0.150 HD
ENDROOT
BRANCH   3   5
ATOM      5  CA  ALA A   2      -3.909   6.318   9.763  0.00  0.00    +0.137 C 
ATOM      6  CB  ALA A   2      -3.653   5.320   8.661  0.00  0.00    +0.030 C 
BRANCH   5   7
ATOM      7  C   ALA A   2      -4.989   5.797  10.711  0.00  0.00    +0.227 C 
ATOM      8  O   ALA A   2      -4.682   5.373  11.831  0.00  0.00    -0.286 OA
ENDBRANCH   5   7
ENDBRANCH   3   5
BRANCH   1   9
ATOM      9  CA  VAL A   1      -1.435   7.434  12.392  0.00  0.00    +0.145 C 
BRANCH   9  10
ATOM     10  CB  VAL A   1      -0.492   8.590  11.958  0.00  0.00    +0.025 C 
ATOM     11  CG2 VAL A   1      -0.016   9.370  13.188  0.00  0.00    +0.002 C 
ATOM     12  CG1 VAL A   1      -1.147   9.500  10.923  0.00  0.00    +0.002 C 
ENDBRANCH   9  10
BRANCH   9  13
ATOM     13  N   VAL A   1      -0.713   6.171  12.396  0.00  0.00    -0.238 NA
ATOM     14  H   VAL A   1      -0.272   5.825  11.520  0.00  0.00    +0.142 HD
ENDBRANCH   9  13
ENDBRANCH   1   9
TORSDOF 5
REMARK  Name = ../refined-set-2016/4f0c/4f0c_pocket.pdb
REMARK  234 active torsions:
REMARK  status: ('A' for Active; 'I' for Inactive)
REMARK    1  A    between atoms: _1  and  _3
REMARK    2  A    between atoms: _3  and  _4
REMARK    3  A    between atoms: _3  and  _6
REMARK    4  A    between atoms: _6  and  _7
REMARK    5  A    between atoms: _12  and  _14
REMARK    6  A    between atoms: _14  and  _15
REMARK    7  A    between atoms: _14  and  _17
REMARK    8  A    between atoms: _17  and  _18
REMARK    9  A    between atoms: _23  and  _25
REMARK   10  A    between atoms: _25  and  _26
REMARK   11  A    between atoms: _25  and  _28
REMARK   12  A    between atoms: _31  and  _33
REMARK   13  A    between atoms: _33  and  _34
REMARK   14  A    between atoms: _37  and  _38
REMARK   15  A    between atoms: _43  and  _45
REMARK   16  A    between atoms: _45  and  _46
REMARK   17  A    between atoms: _45  and  _48
REMARK   18  A    between atoms: _48  and  _49
REMARK   19  A    between atoms: _54  and  _56
REMARK   20  A    between atoms: _56  and  _57
REMARK   21  A    between atoms: _59  and  _61
REMARK   22  A    between atoms: _61  and  _62
REMARK   23  A    between atoms: _61  and  _64
REMARK   24  A    between atoms: _64  and  _65
REMARK   25  A    between atoms: _75  and  _77
REMARK   26  A    between atoms: _77  and  _78
REMARK   27  A    between atoms: _77  and  _80
REMARK   28  A    between atoms: _80  and  _81
REMARK   29  A    between atoms: _81  and  _82
REMARK   30  A    between atoms: _82  and  _83
REMARK   31  A    between atoms: _83  and  _84
REMARK   32  A    between atoms: _88  and  _90
REMARK   33  A    between atoms: _90  and  _91
REMARK   34  A    between atoms: _90  and  _93
REMARK   35  A    between atoms: _96  and  _98
REMARK   36  A    between atoms: _98  and  _99
REMARK   37  A    between atoms: _98  and  _101
REMARK   38  A    between atoms: _104  and  _106
REMARK   39  A    between atoms: _106  and  _107
REMARK   40  A    between atoms: _106  and  _109
REMARK   41  A    between atoms: _109  and  _110
REMARK   42  A    between atoms: _113  and  _115
REMARK   43  A    between atoms: _115  and  _116
REMARK   44  A    between atoms: _118  and  _120
REMARK   45  A    between atoms: _120  and  _121
REMARK   46  A    between atoms: _120  and  _123
REMARK   47  A    between atoms: _123  and  _124
REMARK   48  A    between atoms: _124  and  _125
REMARK   49  A    between atoms: _125  and  _126
REMARK   50  A    between atoms: _135  and  _137
REMARK   51  A    between atoms: _137  and  _138
REMARK   52  A    between atoms: _137  and  _140
REMARK   53  A    between atoms: _140  and  _141
REMARK   54  A    between atoms: _146  and  _148
REMARK   55  A    between atoms: _148  and  _149
REMARK   56  A    between atoms: _148  and  _151
REMARK   57  A    between atoms: _151  and  _152
REMARK   58  A    between atoms: _152  and  _153
REMARK   59  A    between atoms: _153  and  _154
REMARK   60  A    between atoms: _154  and  _155
REMARK   61  A    between atoms: _159  and  _161
REMARK   62  A    between atoms: _161  and  _162
REMARK   63  A    between atoms: _161  and  _164
REMARK   64  A    between atoms: _164  and  _165
REMARK   65  A    between atoms: _171  and  _173
REMARK   66  A    between atoms: _173  and  _174
REMARK   67  A    between atoms: _173  and  _176
REMARK   68  A    between atoms: _176  and  _177
REMARK   69  A    between atoms: _182  and  _184
REMARK   70  A    between atoms: _184  and  _185
REMARK   71  A    between atoms: _184  and  _187
REMARK   72  A    between atoms: _187  and  _188
REMARK   73  A    between atoms: _193  and  _195
REMARK   74  A    between atoms: _195  and  _196
REMARK   75  A    between atoms: _198  and  _200
REMARK   76  A    between atoms: _200  and  _201
REMARK   77  A    between atoms: _200  and  _203
REMARK   78  A    between atoms: _203  and  _204
REMARK   79  A    between atoms: _204  and  _205
REMARK   80  A    between atoms: _205  and  _206
REMARK   81  A    between atoms: _215  and  _217
REMARK   82  A    between atoms: _217  and  _218
REMARK   83  A    between atoms: _217  and  _220
REMARK   84  A    between atoms: _220  and  _221
REMARK   85  A    between atoms: _225  and  _226
REMARK   86  A    between atoms: _231  and  _233
REMARK   87  A    between atoms: _233  and  _234
REMARK   88  A    between atoms: _237  and  _239
REMARK   89  A    between atoms: _239  and  _240
REMARK   90  A    between atoms: _239  and  _242
REMARK   91  A    between atoms: _242  and  _243
REMARK   92  A    between atoms: _253  and  _255
REMARK   93  A    between atoms: _255  and  _256
REMARK   94  A    between atoms: _255  and  _258
REMARK   95  A    between atoms: _258  and  _259
REMARK   96  A    between atoms: _259  and  _260
REMARK   97  A    between atoms: _263  and  _265
REMARK   98  A    between atoms: _265  and  _266
REMARK   99  A    between atoms: _265  and  _268
REMARK  100  A    between atoms: _268  and  _269
REMARK  101  A    between atoms: _271  and  _273
REMARK  102  A    between atoms: _273  and  _274
REMARK  103  A    between atoms: _273  and  _276
REMARK  104  A    between atoms: _276  and  _277
REMARK  105  A    between atoms: _280  and  _282
REMARK  106  A    between atoms: _282  and  _283
REMARK  107  A    between atoms: _286  and  _288
REMARK  108  A    between atoms: _288  and  _289
REMARK  109  A    between atoms: _288  and  _291
REMARK  110  A    between atoms: _291  and  _292
REMARK  111  A    between atoms: _295  and  _297
REMARK  112  A    between atoms: _297  and  _298
REMARK  113  A    between atoms: _297  and  _300
REMARK  114  A    between atoms: _300  and  _301
REMARK  115  A    between atoms: _301  and  _302
REMARK  116  A    between atoms: _307  and  _309
REMARK  117  A    between atoms: _309  and  _310
REMARK  118  A    between atoms: _313  and  _315
REMARK  119  A    between atoms: _315  and  _316
REMARK  120  A    between atoms: _315  and  _318
REMARK  121  A    between atoms: _318  and  _319
REMARK  122  A    between atoms: _321  and  _323
REMARK  123  A    between atoms: _323  and  _324
REMARK  124  A    between atoms: _326  and  _328
REMARK  125  A    between atoms: _328  and  _329
REMARK  126  A    between atoms: _328  and  _331
REMARK  127  A    between atoms: _331  and  _332
REMARK  128  A    between atoms: _332  and  _333
REMARK  129  A    between atoms: _338  and  _340
REMARK  130  A    between atoms: _340  and  _341
REMARK  131  A    between atoms: _344  and  _345
REMARK  132  A    between atoms: _350  and  _352
REMARK  133  A    between atoms: _352  and  _353
REMARK  134  A    between atoms: _352  and  _355
REMARK  135  A    between atoms: _355  and  _356
REMARK  136  A    between atoms: _361  and  _362
REMARK  137  A    between atoms: _364  and  _366
REMARK  138  A    between atoms: _366  and  _367
REMARK  139  A    between atoms: _366  and  _369
REMARK  140  A    between atoms: _369  and  _370
REMARK  141  A    between atoms: _376  and  _378
REMARK  142  A    between atoms: _378  and  _379
REMARK  143  A    between atoms: _381  and  _383
REMARK  144  A    between atoms: _383  and  _384
REMARK  145  A    between atoms: _383  and  _386
REMARK  146  A    between atoms: _386  and  _387
REMARK  147  A    between atoms: _387  and  _388
REMARK  148  A    between atoms: _393  and  _395
REMARK  149  A    between atoms: _395  and  _396
REMARK  150  A    between atoms: _399  and  _401
REMARK  151  A    between atoms: _401  and  _402
REMARK  152  A    between atoms: _404  and  _406
REMARK  153  A    between atoms: _406  and  _407
REMARK  154  A    between atoms: _406  and  _409
REMARK  155  A    between atoms: _409  and  _410
REMARK  156  A    between atoms: _420  and  _422
REMARK  157  A    between atoms: _422  and  _423
REMARK  158  A    between atoms: _422  and  _425
REMARK  159  A    between atoms: _425  and  _426
REMARK  160  A    between atoms: _432  and  _434
REMARK  161  A    between atoms: _434  and  _435
REMARK  162  A    between atoms: _434  and  _437
REMARK  163  A    between atoms: _440  and  _442
REMARK  164  A    between atoms: _442  and  _443
REMARK  165  A    between atoms: _446  and  _448
REMARK  166  A    between atoms: _448  and  _449
REMARK  167  A    between atoms: _448  and  _451
REMARK  168  A    between atoms: _451  and  _452
REMARK  169  A    between atoms: _452  and  _453
REMARK  170  A    between atoms: _456  and  _458
REMARK  171  A    between atoms: _458  and  _459
REMARK  172  A    between atoms: _458  and  _461
REMARK  173  A    between atoms: _461  and  _462
REMARK  174  A    between atoms: _472  and  _474
REMARK  175  A    between atoms: _474  and  _475
REMARK  176  A    between atoms: _474  and  _477
REMARK  177  A    between atoms: _477  and  _478
REMARK  178  A    between atoms: _478  and  _479
REMARK  179  A    between atoms: _479  and  _480
REMARK  180  A    between atoms: _480  and  _481
REMARK  181  A    between atoms: _485  and  _487
REMARK  182  A    between atoms: _487  and  _488
REMARK  183  A    between atoms: _487  and  _490
REMARK  184  A    between atoms: _490  and  _491
REMARK  185  A    between atoms: _497  and  _499
REMARK  186  A    between atoms: _499  and  _500
REMARK  187  A    between atoms: _499  and  _502
REMARK  188  A    between atoms: _502  and  _503
REMARK  189  A    between atoms: _509  and  _511
REMARK  190  A    between atoms: _511  and  _512
REMARK  191  A    between atoms: _511  and  _514
REMARK  192  A    between atoms: _514  and  _515
REMARK  193  A    between atoms: _515  and  _516
REMARK  194  A    between atoms: _521  and  _523
REMARK  195  A    between atoms: _523  and  _524
REMARK  196  A    between atoms: _527  and  _529
REMARK  197  A    between atoms: _529  and  _530
REMARK  198  A    between atoms: _529  and  _532
REMARK  199  A    between atoms: _532  and  _533
REMARK  200  A    between atoms: _535  and  _537
REMARK  201  A    between atoms: _537  and  _538
REMARK  202  A    between atoms: _540  and  _542
REMARK  203  A    between atoms: _542  and  _543
REMARK  204  A    between atoms: _542  and  _545
REMARK  205  A    between atoms: _545  and  _546
REMARK  206  A    between atoms: _546  and  _547
REMARK  207  A    between atoms: _553  and  _554
REMARK  208  A    between atoms: _559  and  _561
REMARK  209  A    between atoms: _561  and  _562
REMARK  210  A    between atoms: _561  and  _564
REMARK  211  A    between atoms: _564  and  _565
REMARK  212  A    between atoms: _570  and  _571
REMARK  213  A    between atoms: _573  and  _575
REMARK  214  A    between atoms: _575  and  _576
REMARK  215  A    between atoms: _575  and  _578
REMARK  216  A    between atoms: _578  and  _579
REMARK  217  A    between atoms: _579  and  _580
REMARK  218  A    between atoms: _580  and  _581
REMARK  219  A    between atoms: _590  and  _592
REMARK  220  A    between atoms: _592  and  _593
REMARK  221  A    between atoms: _592  and  _595
REMARK  222  A    between atoms: _595  and  _596
REMARK  223  A    between atoms: _601  and  _602
REMARK  224  A    between atoms: _604  and  _606
REMARK  225  A    between atoms: _606  and  _607
REMARK  226  A    between atoms: _606  and  _609
REMARK  227  A    between atoms: _609  and  _610
REMARK  228  A    between atoms: _610  and  _611
REMARK  229  A    between atoms: _614  and  _616
REMARK  230  A    between atoms: _616  and  _617
REMARK  231  A    between atoms: _616  and  _619
REMARK  232  A    between atoms: _619  and  _620
REMARK  233  A    between atoms: _620  and  _621
REMARK  234  A    between atoms: _621  and  _622
REMARK                            x       y       z     vdW  Elec       q    Type
REMARK                         _______ _______ _______ _____ _____    ______ ____
ROOT
ATOM      1  CA  GLU A   1      -6.532   1.427   7.458  0.00  0.00    +0.134 C 
ENDROOT
BRANCH   1   2
ATOM      2  N   GLU A   1      -7.198   1.182   8.748  0.00  0.00    -0.239 NA
ATOM      3  H   GLU A   1      -7.284   1.958   9.435  0.00  0.00    +0.142 HD
ENDBRANCH   1   2
BRANCH   1   4
ATOM      4  C   GLU A   1      -5.013   1.188   7.517  0.00  0.00    +0.224 C 
ATOM      5  O   GLU A   1      -4.324   1.158   6.481  0.00  0.00    -0.287 OA
ENDBRANCH   1   4
BRANCH   1   6
ATOM      6  CB  GLU A   1      -6.796   2.848   6.958  0.00  0.00    +0.037 C 
BRANCH   6   7
ATOM      7  CG  GLU A   1      -8.220   3.110   6.500  0.00  0.00    +0.116 C 
BRANCH   7   8
ATOM      8  CD  GLU A   1      -8.370   4.484   5.858  0.00  0.00    +0.365 C 
ATOM      9  OE2 GLU A   1      -9.507   5.021   5.850  0.00  0.00    -0.246 OA
ATOM     10  OE1 GLU A   1      -7.342   5.027   5.377  0.00  0.00    -0.246 OA
ENDBRANCH   7   8
ENDBRANCH   6   7
ENDBRANCH   1   6
TORSDOF 5
REMARK  Name = ../refined-set-2016/4f0c/4f0c_pocket.pdb
REMARK  234 active torsions:
REMARK  status: ('A' for Active; 'I' for Inactive)
REMARK    1  A    between atoms: _1  and  _3
REMARK    2  A    between atoms: _3  and  _4
REMARK    3  A    between atoms: _3  and  _6
REMARK    4  A    between atoms: _6  and  _7
REMARK    5  A    between atoms: _12  and  _14
REMARK    6  A    between atoms: _14  and  _15
REMARK    7  A    between atoms: _14  and  _17
REMARK    8  A    between atoms: _17  and  _18
REMARK    9  A    between atoms: _23  and  _25
REMARK   10  A    between atoms: _25  and  _26
REMARK   11  A    between atoms: _25  and  _28
REMARK   12  A    between atoms: _31  and  _33
REMARK   13  A    between atoms: _33  and  _34
REMARK   14  A    between atoms: _37  and  _38
REMARK   15  A    between atoms: _43  and  _45
REMARK   16  A    between atoms: _45  and  _46
REMARK   17  A    between atoms: _45  and  _48
REMARK   18  A    between atoms: _48  and  _49
REMARK   19  A    between atoms: _54  and  _56
REMARK   20  A    between atoms: _56  and  _57
REMARK   21  A    between atoms: _59  and  _61
REMARK   22  A    between atoms: _61  and  _62
REMARK   23  A    between atoms: _61  and  _64
REMARK   24  A    between atoms: _64  and  _65
REMARK   25  A    between atoms: _75  and  _77
REMARK   26  A    between atoms: _77  and  _78
REMARK   27  A    between atoms: _77  and  _80
REMARK   28  A    between atoms: _80  and  _81
REMARK   29  A    between atoms: _81  and  _82
REMARK   30  A    between atoms: _82  and  _83
REMARK   31  A    between atoms: _83  and  _84
REMARK   32  A    between atoms: _88  and  _90
REMARK   33  A    between atoms: _90  and  _91
REMARK   34  A    between atoms: _90  and  _93
REMARK   35  A    between atoms: _96  and  _98
REMARK   36  A    between atoms: _98  and  _99
REMARK   37  A    between atoms: _98  and  _101
REMARK   38  A    between atoms: _104  and  _106
REMARK   39  A    between atoms: _106  and  _107
REMARK   40  A    between atoms: _106  and  _109
REMARK   41  A    between atoms: _109  and  _110
REMARK   42  A    between atoms: _113  and  _115
REMARK   43  A    between atoms: _115  and  _116
REMARK   44  A    between atoms: _118  and  _120
REMARK   45  A    between atoms: _120  and  _121
REMARK   46  A    between atoms: _120  and  _123
REMARK   47  A    between atoms: _123  and  _124
REMARK   48  A    between atoms: _124  and  _125
REMARK   49  A    between atoms: _125  and  _126
REMARK   50  A    between atoms: _135  and  _137
REMARK   51  A    between atoms: _137  and  _138
REMARK   52  A    between atoms: _137  and  _140
REMARK   53  A    between atoms: _140  and  _141
REMARK   54  A    between atoms: _146  and  _148
REMARK   55  A    between atoms: _148  and  _149
REMARK   56  A    between atoms: _148  and  _151
REMARK   57  A    between atoms: _151  and  _152
REMARK   58  A    between atoms: _152  and  _153
REMARK   59  A    between atoms: _153  and  _154
REMARK   60  A    between atoms: _154  and  _155
REMARK   61  A    between atoms: _159  and  _161
REMARK   62  A    between atoms: _161  and  _162
REMARK   63  A    between atoms: _161  and  _164
REMARK   64  A    between atoms: _164  and  _165
REMARK   65  A    between atoms: _171  and  _173
REMARK   66  A    between atoms: _173  and  _174
REMARK   67  A    between atoms: _173  and  _176
REMARK   68  A    between atoms: _176  and  _177
REMARK   69  A    between atoms: _182  and  _184
REMARK   70  A    between atoms: _184  and  _185
REMARK   71  A    between atoms: _184  and  _187
REMARK   72  A    between atoms: _187  and  _188
REMARK   73  A    between atoms: _193  and  _195
REMARK   74  A    between atoms: _195  and  _196
REMARK   75  A    between atoms: _198  and  _200
REMARK   76  A    between atoms: _200  and  _201
REMARK   77  A    between atoms: _200  and  _203
REMARK   78  A    between atoms: _203  and  _204
REMARK   79  A    between atoms: _204  and  _205
REMARK   80  A    between atoms: _205  and  _206
REMARK   81  A    between atoms: _215  and  _217
REMARK   82  A    between atoms: _217  and  _218
REMARK   83  A    between atoms: _217  and  _220
REMARK   84  A    between atoms: _220  and  _221
REMARK   85  A    between atoms: _225  and  _226
REMARK   86  A    between atoms: _231  and  _233
REMARK   87  A    between atoms: _233  and  _234
REMARK   88  A    between atoms: _237  and  _239
REMARK   89  A    between atoms: _239  and  _240
REMARK   90  A    between atoms: _239  and  _242
REMARK   91  A    between atoms: _242  and  _243
REMARK   92  A    between atoms: _253  and  _255
REMARK   93  A    between atoms: _255  and  _256
REMARK   94  A    between atoms: _255  and  _258
REMARK   95  A    between atoms: _258  and  _259
REMARK   96  A    between atoms: _259  and  _260
REMARK   97  A    between atoms: _263  and  _265
REMARK   98  A    between atoms: _265  and  _266
REMARK   99  A    between atoms: _265  and  _268
REMARK  100  A    between atoms: _268  and  _269
REMARK  101  A    between atoms: _271  and  _273
REMARK  102  A    between atoms: _273  and  _274
REMARK  103  A    between atoms: _273  and  _276
REMARK  104  A    between atoms: _276  and  _277
REMARK  105  A    between atoms: _280  and  _282
REMARK  106  A    between atoms: _282  and  _283
REMARK  107  A    between atoms: _286  and  _288
REMARK  108  A    between atoms: _288  and  _289
REMARK  109  A    between atoms: _288  and  _291
REMARK  110  A    between atoms: _291  and  _292
REMARK  111  A    between atoms: _295  and  _297
REMARK  112  A    between atoms: _297  and  _298
REMARK  113  A    between atoms: _297  and  _300
REMARK  114  A    between atoms: _300  and  _301
REMARK  115  A    between atoms: _301  and  _302
REMARK  116  A    between atoms: _307  and  _309
REMARK  117  A    between atoms: _309  and  _310
REMARK  118  A    between atoms: _313  and  _315
REMARK  119  A    between atoms: _315  and  _316
REMARK  120  A    between atoms: _315  and  _318
REMARK  121  A    between atoms: _318  and  _319
REMARK  122  A    between atoms: _321  and  _323
REMARK  123  A    between atoms: _323  and  _324
REMARK  124  A    between atoms: _326  and  _328
REMARK  125  A    between atoms: _328  and  _329
REMARK  126  A    between atoms: _328  and  _331
REMARK  127  A    between atoms: _331  and  _332
REMARK  128  A    between atoms: _332  and  _333
REMARK  129  A    between atoms: _338  and  _340
REMARK  130  A    between atoms: _340  and  _341
REMARK  131  A    between atoms: _344  and  _345
REMARK  132  A    between atoms: _350  and  _352
REMARK  133  A    between atoms: _352  and  _353
REMARK  134  A    between atoms: _352  and  _355
REMARK  135  A    between atoms: _355  and  _356
REMARK  136  A    between atoms: _361  and  _362
REMARK  137  A    between atoms: _364  and  _366
REMARK  138  A    between atoms: _366  and  _367
REMARK  139  A    between atoms: _366  and  _369
REMARK  140  A    between atoms: _369  and  _370
REMARK  141  A    between atoms: _376  and  _378
REMARK  142  A    between atoms: _378  and  _379
REMARK  143  A    between atoms: _381  and  _383
REMARK  144  A    between atoms: _383  and  _384
REMARK  145  A    between atoms: _383  and  _386
REMARK  146  A    between atoms: _386  and  _387
REMARK  147  A    between atoms: _387  and  _388
REMARK  148  A    between atoms: _393  and  _395
REMARK  149  A    between atoms: _395  and  _396
REMARK  150  A    between atoms: _399  and  _401
REMARK  151  A    between atoms: _401  and  _402
REMARK  152  A    between atoms: _404  and  _406
REMARK  153  A    between atoms: _406  and  _407
REMARK  154  A    between atoms: _406  and  _409
REMARK  155  A    between atoms: _409  and  _410
REMARK  156  A    between atoms: _420  and  _422
REMARK  157  A    between atoms: _422  and  _423
REMARK  158  A    between atoms: _422  and  _425
REMARK  159  A    between atoms: _425  and  _426
REMARK  160  A    between atoms: _432  and  _434
REMARK  161  A    between atoms: _434  and  _435
REMARK  162  A    between atoms: _434  and  _437
REMARK  163  A    between atoms: _440  and  _442
REMARK  164  A    between atoms: _442  and  _443
REMARK  165  A    between atoms: _446  and  _448
REMARK  166  A    between atoms: _448  and  _449
REMARK  167  A    between atoms: _448  and  _451
REMARK  168  A    between atoms: _451  and  _452
REMARK  169  A    between atoms: _452  and  _453
REMARK  170  A    between atoms: _456  and  _458
REMARK  171  A    between atoms: _458  and  _459
REMARK  172  A    between atoms: _458  and  _461
REMARK  173  A    between atoms: _461  and  _462
REMARK  174  A    between atoms: _472  and  _474
REMARK  175  A    between atoms: _474  and  _475
REMARK  176  A    between atoms: _474  and  _477
REMARK  177  A    between atoms: _477  and  _478
REMARK  178  A    between atoms: _478  and  _479
REMARK  179  A    between atoms: _479  and  _480
REMARK  180  A    between atoms: _480  and  _481
REMARK  181  A    between atoms: _485  and  _487
REMARK  182  A    between atoms: _487  and  _488
REMARK  183  A    between atoms: _487  and  _490
REMARK  184  A    between atoms: _490  and  _491
REMARK  185  A    between atoms: _497  and  _499
REMARK  186  A    between atoms: _499  and  _500
REMARK  187  A    between atoms: _499  and  _502
REMARK  188  A    between atoms: _502  and  _503
REMARK  189  A    between atoms: _509  and  _511
REMARK  190  A    between atoms: _511  and  _512
REMARK  191  A    between atoms: _511  and  _514
REMARK  192  A    between atoms: _514  and  _515
REMARK  193  A    between atoms: _515  and  _516
REMARK  194  A    between atoms: _521  and  _523
REMARK  195  A    between atoms: _523  and  _524
REMARK  196  A    between atoms: _527  and  _529
REMARK  197  A    between atoms: _529  and  _530
REMARK  198  A    between atoms: _529  and  _532
REMARK  199  A    between atoms: _532  and  _533
REMARK  200  A    between atoms: _535  and  _537
REMARK  201  A    between atoms: _537  and  _538
REMARK  202  A    between atoms: _540  and  _542
REMARK  203  A    between atoms: _542  and  _543
REMARK  204  A    between atoms: _542  and  _545
REMARK  205  A    between atoms: _545  and  _546
REMARK  206  A    between atoms: _546  and  _547
REMARK  207  A    between atoms: _553  and  _554
REMARK  208  A    between atoms: _559  and  _561
REMARK  209  A    between atoms: _561  and  _562
REMARK  210  A    between atoms: _561  and  _564
REMARK  211  A    between atoms: _564  and  _565
REMARK  212  A    between atoms: _570  and  _571
REMARK  213  A    between atoms: _573  and  _575
REMARK  214  A    between atoms: _575  and  _576
REMARK  215  A    between atoms: _575  and  _578
REMARK  216  A    between atoms: _578  and  _579
REMARK  217  A    between atoms: _579  and  _580
REMARK  218  A    between atoms: _580  and  _581
REMARK  219  A    between atoms: _590  and  _592
REMARK  220  A    between atoms: _592  and  _593
REMARK  221  A    between atoms: _592  and  _595
REMARK  222  A    between atoms: _595  and  _596
REMARK  223  A    between atoms: _601  and  _602
REMARK  224  A    between atoms: _604  and  _606
REMARK  225  A    between atoms: _606  and  _607
REMARK  226  A    between atoms: _606  and  _609
REMARK  227  A    between atoms: _609  and  _610
REMARK  228  A    between atoms: _610  and  _611
REMARK  229  A    between atoms: _614  and  _616
REMARK  230  A    between atoms: _616  and  _617
REMARK  231  A    between atoms: _616  and  _619
REMARK  232  A    between atoms: _619  and  _620
REMARK  233  A    between atoms: _620  and  _621
REMARK  234  A    between atoms: _621  and  _622
REMARK                            x       y       z     vdW  Elec       q    Type
REMARK                         _______ _______ _______ _____ _____    ______ ____
ROOT
ATOM      1  CG  TRP A   1      10.022  13.686  10.332  0.00  0.00    -0.002 A 
ATOM      2  CD2 TRP A   1       8.752  13.010  10.264  0.00  0.00    +0.013 A 
ATOM      3  CE3 TRP A   1       8.316  11.716  10.605  0.00  0.00    +0.001 A 
ATOM      4  CZ3 TRP A   1       6.983  11.380  10.390  0.00  0.00    +0.000 A 
ATOM      5  CH2 TRP A   1       6.089  12.303   9.829  0.00  0.00    +0.001 A 
ATOM      6  CZ2 TRP A   1       6.493  13.577   9.476  0.00  0.00    +0.017 A 
ATOM      7  CE2 TRP A   1       7.832  13.910   9.693  0.00  0.00    +0.056 A 
ATOM      8  NE1 TRP A   1       8.501  15.082   9.448  0.00  0.00    -0.352 N 
ATOM      9  HE1 TRP A   1       8.078  15.941   9.043  0.00  0.00    +0.166 HD
ATOM     10  CD1 TRP A   1       9.814  14.946   9.820  0.00  0.00    +0.068 A 
ENDROOT
BRANCH   1  11
ATOM     11  CB  TRP A   1      11.325  13.121  10.856  0.00  0.00    +0.053 C 
BRANCH  11  12
ATOM     12  CA  TRP A   1      11.357  12.947  12.372  0.00  0.00    +0.137 C 
BRANCH  12  13
ATOM     13  N   TRP A   1      11.684  14.202  13.056  0.00  0.00    -0.239 NA
ATOM     14  H   TRP A   1      12.055  15.012  12.519  0.00  0.00    +0.142 HD
ENDBRANCH  12  13
BRANCH  12  15
ATOM     15  C   TRP A   1      12.307  11.810  12.748  0.00  0.00    +0.224 C 
ATOM     16  O   TRP A   1      11.896  10.641  12.785  0.00  0.00    -0.287 OA
ENDBRANCH  12  15
ENDBRANCH  11  12
ENDBRANCH   1  11
TORSDOF 4
REMARK  Name = ../refined-set-2016/4f0c/4f0c_pocket.pdb
REMARK  234 active torsions:
REMARK  status: ('A' for Active; 'I' for Inactive)
REMARK    1  A    between atoms: _1  and  _3
REMARK    2  A    between atoms: _3  and  _4
REMARK    3  A    between atoms: _3  and  _6
REMARK    4  A    between atoms: _6  and  _7
REMARK    5  A    between atoms: _12  and  _14
REMARK    6  A    between atoms: _14  and  _15
REMARK    7  A    between atoms: _14  and  _17
REMARK    8  A    between atoms: _17  and  _18
REMARK    9  A    between atoms: _23  and  _25
REMARK   10  A    between atoms: _25  and  _26
REMARK   11  A    between atoms: _25  and  _28
REMARK   12  A    between atoms: _31  and  _33
REMARK   13  A    between atoms: _33  and  _34
REMARK   14  A    between atoms: _37  and  _38
REMARK   15  A    between atoms: _43  and  _45
REMARK   16  A    between atoms: _45  and  _46
REMARK   17  A    between atoms: _45  and  _48
REMARK   18  A    between atoms: _48  and  _49
REMARK   19  A    between atoms: _54  and  _56
REMARK   20  A    between atoms: _56  and  _57
REMARK   21  A    between atoms: _59  and  _61
REMARK   22  A    between atoms: _61  and  _62
REMARK   23  A    between atoms: _61  and  _64
REMARK   24  A    between atoms: _64  and  _65
REMARK   25  A    between atoms: _75  and  _77
REMARK   26  A    between atoms: _77  and  _78
REMARK   27  A    between atoms: _77  and  _80
REMARK   28  A    between atoms: _80  and  _81
REMARK   29  A    between atoms: _81  and  _82
REMARK   30  A    between atoms: _82  and  _83
REMARK   31  A    between atoms: _83  and  _84
REMARK   32  A    between atoms: _88  and  _90
REMARK   33  A    between atoms: _90  and  _91
REMARK   34  A    between atoms: _90  and  _93
REMARK   35  A    between atoms: _96  and  _98
REMARK   36  A    between atoms: _98  and  _99
REMARK   37  A    between atoms: _98  and  _101
REMARK   38  A    between atoms: _104  and  _106
REMARK   39  A    between atoms: _106  and  _107
REMARK   40  A    between atoms: _106  and  _109
REMARK   41  A    between atoms: _109  and  _110
REMARK   42  A    between atoms: _113  and  _115
REMARK   43  A    between atoms: _115  and  _116
REMARK   44  A    between atoms: _118  and  _120
REMARK   45  A    between atoms: _120  and  _121
REMARK   46  A    between atoms: _120  and  _123
REMARK   47  A    between atoms: _123  and  _124
REMARK   48  A    between atoms: _124  and  _125
REMARK   49  A    between atoms: _125  and  _126
REMARK   50  A    between atoms: _135  and  _137
REMARK   51  A    between atoms: _137  and  _138
REMARK   52  A    between atoms: _137  and  _140
REMARK   53  A    between atoms: _140  and  _141
REMARK   54  A    between atoms: _146  and  _148
REMARK   55  A    between atoms: _148  and  _149
REMARK   56  A    between atoms: _148  and  _151
REMARK   57  A    between atoms: _151  and  _152
REMARK   58  A    between atoms: _152  and  _153
REMARK   59  A    between atoms: _153  and  _154
REMARK   60  A    between atoms: _154  and  _155
REMARK   61  A    between atoms: _159  and  _161
REMARK   62  A    between atoms: _161  and  _162
REMARK   63  A    between atoms: _161  and  _164
REMARK   64  A    between atoms: _164  and  _165
REMARK   65  A    between atoms: _171  and  _173
REMARK   66  A    between atoms: _173  and  _174
REMARK   67  A    between atoms: _173  and  _176
REMARK   68  A    between atoms: _176  and  _177
REMARK   69  A    between atoms: _182  and  _184
REMARK   70  A    between atoms: _184  and  _185
REMARK   71  A    between atoms: _184  and  _187
REMARK   72  A    between atoms: _187  and  _188
REMARK   73  A    between atoms: _193  and  _195
REMARK   74  A    between atoms: _195  and  _196
REMARK   75  A    between atoms: _198  and  _200
REMARK   76  A    between atoms: _200  and  _201
REMARK   77  A    between atoms: _200  and  _203
REMARK   78  A    between atoms: _203  and  _204
REMARK   79  A    between atoms: _204  and  _205
REMARK   80  A    between atoms: _205  and  _206
REMARK   81  A    between atoms: _215  and  _217
REMARK   82  A    between atoms: _217  and  _218
REMARK   83  A    between atoms: _217  and  _220
REMARK   84  A    between atoms: _220  and  _221
REMARK   85  A    between atoms: _225  and  _226
REMARK   86  A    between atoms: _231  and  _233
REMARK   87  A    between atoms: _233  and  _234
REMARK   88  A    between atoms: _237  and  _239
REMARK   89  A    between atoms: _239  and  _240
REMARK   90  A    between atoms: _239  and  _242
REMARK   91  A    between atoms: _242  and  _243
REMARK   92  A    between atoms: _253  and  _255
REMARK   93  A    between atoms: _255  and  _256
REMARK   94  A    between atoms: _255  and  _258
REMARK   95  A    between atoms: _258  and  _259
REMARK   96  A    between atoms: _259  and  _260
REMARK   97  A    between atoms: _263  and  _265
REMARK   98  A    between atoms: _265  and  _266
REMARK   99  A    between atoms: _265  and  _268
REMARK  100  A    between atoms: _268  and  _269
REMARK  101  A    between atoms: _271  and  _273
REMARK  102  A    between atoms: _273  and  _274
REMARK  103  A    between atoms: _273  and  _276
REMARK  104  A    between atoms: _276  and  _277
REMARK  105  A    between atoms: _280  and  _282
REMARK  106  A    between atoms: _282  and  _283
REMARK  107  A    between atoms: _286  and  _288
REMARK  108  A    between atoms: _288  and  _289
REMARK  109  A    between atoms: _288  and  _291
REMARK  110  A    between atoms: _291  and  _292
REMARK  111  A    between atoms: _295  and  _297
REMARK  112  A    between atoms: _297  and  _298
REMARK  113  A    between atoms: _297  and  _300
REMARK  114  A    between atoms: _300  and  _301
REMARK  115  A    between atoms: _301  and  _302
REMARK  116  A    between atoms: _307  and  _309
REMARK  117  A    between atoms: _309  and  _310
REMARK  118  A    between atoms: _313  and  _315
REMARK  119  A    between atoms: _315  and  _316
REMARK  120  A    between atoms: _315  and  _318
REMARK  121  A    between atoms: _318  and  _319
REMARK  122  A    between atoms: _321  and  _323
REMARK  123  A    between atoms: _323  and  _324
REMARK  124  A    between atoms: _326  and  _328
REMARK  125  A    between atoms: _328  and  _329
REMARK  126  A    between atoms: _328  and  _331
REMARK  127  A    between atoms: _331  and  _332
REMARK  128  A    between atoms: _332  and  _333
REMARK  129  A    between atoms: _338  and  _340
REMARK  130  A    between atoms: _340  and  _341
REMARK  131  A    between atoms: _344  and  _345
REMARK  132  A    between atoms: _350  and  _352
REMARK  133  A    between atoms: _352  and  _353
REMARK  134  A    between atoms: _352  and  _355
REMARK  135  A    between atoms: _355  and  _356
REMARK  136  A    between atoms: _361  and  _362
REMARK  137  A    between atoms: _364  and  _366
REMARK  138  A    between atoms: _366  and  _367
REMARK  139  A    between atoms: _366  and  _369
REMARK  140  A    between atoms: _369  and  _370
REMARK  141  A    between atoms: _376  and  _378
REMARK  142  A    between atoms: _378  and  _379
REMARK  143  A    between atoms: _381  and  _383
REMARK  144  A    between atoms: _383  and  _384
REMARK  145  A    between atoms: _383  and  _386
REMARK  146  A    between atoms: _386  and  _387
REMARK  147  A    between atoms: _387  and  _388
REMARK  148  A    between atoms: _393  and  _395
REMARK  149  A    between atoms: _395  and  _396
REMARK  150  A    between atoms: _399  and  _401
REMARK  151  A    between atoms: _401  and  _402
REMARK  152  A    between atoms: _404  and  _406
REMARK  153  A    between atoms: _406  and  _407
REMARK  154  A    between atoms: _406  and  _409
REMARK  155  A    between atoms: _409  and  _410
REMARK  156  A    between atoms: _420  and  _422
REMARK  157  A    between atoms: _422  and  _423
REMARK  158  A    between atoms: _422  and  _425
REMARK  159  A    between atoms: _425  and  _426
REMARK  160  A    between atoms: _432  and  _434
REMARK  161  A    between atoms: _434  and  _435
REMARK  162  A    between atoms: _434  and  _437
REMARK  163  A    between atoms: _440  and  _442
REMARK  164  A    between atoms: _442  and  _443
REMARK  165  A    between atoms: _446  and  _448
REMARK  166  A    between atoms: _448  and  _449
REMARK  167  A    between atoms: _448  and  _451
REMARK  168  A    between atoms: _451  and  _452
REMARK  169  A    between atoms: _452  and  _453
REMARK  170  A    between atoms: _456  and  _458
REMARK  171  A    between atoms: _458  and  _459
REMARK  172  A    between atoms: _458  and  _461
REMARK  173  A    between atoms: _461  and  _462
REMARK  174  A    between atoms: _472  and  _474
REMARK  175  A    between atoms: _474  and  _475
REMARK  176  A    between atoms: _474  and  _477
REMARK  177  A    between atoms: _477  and  _478
REMARK  178  A    between atoms: _478  and  _479
REMARK  179  A    between atoms: _479  and  _480
REMARK  180  A    between atoms: _480  and  _481
REMARK  181  A    between atoms: _485  and  _487
REMARK  182  A    between atoms: _487  and  _488
REMARK  183  A    between atoms: _487  and  _490
REMARK  184  A    between atoms: _490  and  _491
REMARK  185  A    between atoms: _497  and  _499
REMARK  186  A    between atoms: _499  and  _500
REMARK  187  A    between atoms: _499  and  _502
REMARK  188  A    between atoms: _502  and  _503
REMARK  189  A    between atoms: _509  and  _511
REMARK  190  A    between atoms: _511  and  _512
REMARK  191  A    between atoms: _511  and  _514
REMARK  192  A    between atoms: _514  and  _515
REMARK  193  A    between atoms: _515  and  _516
REMARK  194  A    between atoms: _521  and  _523
REMARK  195  A    between atoms: _523  and  _524
REMARK  196  A    between atoms: _527  and  _529
REMARK  197  A    between atoms: _529  and  _530
REMARK  198  A    between atoms: _529  and  _532
REMARK  199  A    between atoms: _532  and  _533
REMARK  200  A    between atoms: _535  and  _537
REMARK  201  A    between atoms: _537  and  _538
REMARK  202  A    between atoms: _540  and  _542
REMARK  203  A    between atoms: _542  and  _543
REMARK  204  A    between atoms: _542  and  _545
REMARK  205  A    between atoms: _545  and  _546
REMARK  206  A    between atoms: _546  and  _547
REMARK  207  A    between atoms: _553  and  _554
REMARK  208  A    between atoms: _559  and  _561
REMARK  209  A    between atoms: _561  and  _562
REMARK  210  A    between atoms: _561  and  _564
REMARK  211  A    between atoms: _564  and  _565
REMARK  212  A    between atoms: _570  and  _571
REMARK  213  A    between atoms: _573  and  _575
REMARK  214  A    between atoms: _575  and  _576
REMARK  215  A    between atoms: _575  and  _578
REMARK  216  A    between atoms: _578  and  _579
REMARK  217  A    between atoms: _579  and  _580
REMARK  218  A    between atoms: _580  and  _581
REMARK  219  A    between atoms: _590  and  _592
REMARK  220  A    between atoms: _592  and  _593
REMARK  221  A    between atoms: _592  and  _595
REMARK  222  A    between atoms: _595  and  _596
REMARK  223  A    between atoms: _601  and  _602
REMARK  224  A    between atoms: _604  and  _606
REMARK  225  A    between atoms: _606  and  _607
REMARK  226  A    between atoms: _606  and  _609
REMARK  227  A    between atoms: _609  and  _610
REMARK  228  A    between atoms: _610  and  _611
REMARK  229  A    between atoms: _614  and  _616
REMARK  230  A    between atoms: _616  and  _617
REMARK  231  A    between atoms: _616  and  _619
REMARK  232  A    between atoms: _619  and  _620
REMARK  233  A    between atoms: _620  and  _621
REMARK  234  A    between atoms: _621  and  _622
REMARK                            x       y       z     vdW  Elec       q    Type
REMARK                         _______ _______ _______ _____ _____    ______ ____
ROOT
ATOM      1  CG  LYS A   1       5.621  16.810  20.722  0.00  0.00    -0.000 C 
ENDROOT
BRANCH   1   2
ATOM      2  CB  LYS A   1       6.345  17.832  21.601  0.00  0.00    +0.025 C 
BRANCH   2   3
ATOM      3  CA  LYS A   1       5.548  18.345  22.817  0.00  0.00    +0.133 C 
BRANCH   3   4
ATOM      4  N   LYS A   1       6.385  19.161  23.681  0.00  0.00    -0.239 NA
ATOM      5  H   LYS A   1       7.402  19.250  23.481  0.00  0.00    +0.142 HD
ENDBRANCH   3   4
BRANCH   3   6
ATOM      6  C   LYS A   1       4.896  17.200  23.583  0.00  0.00    +0.224 C 
ATOM      7  O   LYS A   1       3.697  16.959  23.414  0.00  0.00    -0.287 OA
ENDBRANCH   3   6
ENDBRANCH   2   3
ENDBRANCH   1   2
BRANCH   1   8
ATOM      8  CD  LYS A   1       6.494  16.463  19.506  0.00  0.00    -0.024 C 
BRANCH   8   9
ATOM      9  CE  LYS A   1       5.728  15.768  18.378  0.00  0.00    -0.086 C 
BRANCH   9  10
ATOM     10  NZ  LYS A   1       4.963  14.614  18.884  0.00  0.00    +0.380 N 
ATOM     11  HZ1 LYS A   1       4.280  14.939  19.598  0.00  0.00    -0.089 HD
ATOM     12  HZ2 LYS A   1       5.616  13.928  19.314  0.00  0.00    -0.089 HD
ATOM     13  HZ3 LYS A   1       4.455  14.164  18.096  0.00  0.00    -0.089 HD
ENDBRANCH   9  10
ENDBRANCH   8   9
ENDBRANCH   1   8
TORSDOF 7
REMARK  Name = ../refined-set-2016/4f0c/4f0c_pocket.pdb
REMARK  234 active torsions:
REMARK  status: ('A' for Active; 'I' for Inactive)
REMARK    1  A    between atoms: _1  and  _3
REMARK    2  A    between atoms: _3  and  _4
REMARK    3  A    between atoms: _3  and  _6
REMARK    4  A    between atoms: _6  and  _7
REMARK    5  A    between atoms: _12  and  _14
REMARK    6  A    between atoms: _14  and  _15
REMARK    7  A    between atoms: _14  and  _17
REMARK    8  A    between atoms: _17  and  _18
REMARK    9  A    between atoms: _23  and  _25
REMARK   10  A    between atoms: _25  and  _26
REMARK   11  A    between atoms: _25  and  _28
REMARK   12  A    between atoms: _31  and  _33
REMARK   13  A    between atoms: _33  and  _34
REMARK   14  A    between atoms: _37  and  _38
REMARK   15  A    between atoms: _43  and  _45
REMARK   16  A    between atoms: _45  and  _46
REMARK   17  A    between atoms: _45  and  _48
REMARK   18  A    between atoms: _48  and  _49
REMARK   19  A    between atoms: _54  and  _56
REMARK   20  A    between atoms: _56  and  _57
REMARK   21  A    between atoms: _59  and  _61
REMARK   22  A    between atoms: _61  and  _62
REMARK   23  A    between atoms: _61  and  _64
REMARK   24  A    between atoms: _64  and  _65
REMARK   25  A    between atoms: _75  and  _77
REMARK   26  A    between atoms: _77  and  _78
REMARK   27  A    between atoms: _77  and  _80
REMARK   28  A    between atoms: _80  and  _81
REMARK   29  A    between atoms: _81  and  _82
REMARK   30  A    between atoms: _82  and  _83
REMARK   31  A    between atoms: _83  and  _84
REMARK   32  A    between atoms: _88  and  _90
REMARK   33  A    between atoms: _90  and  _91
REMARK   34  A    between atoms: _90  and  _93
REMARK   35  A    between atoms: _96  and  _98
REMARK   36  A    between atoms: _98  and  _99
REMARK   37  A    between atoms: _98  and  _101
REMARK   38  A    between atoms: _104  and  _106
REMARK   39  A    between atoms: _106  and  _107
REMARK   40  A    between atoms: _106  and  _109
REMARK   41  A    between atoms: _109  and  _110
REMARK   42  A    between atoms: _113  and  _115
REMARK   43  A    between atoms: _115  and  _116
REMARK   44  A    between atoms: _118  and  _120
REMARK   45  A    between atoms: _120  and  _121
REMARK   46  A    between atoms: _120  and  _123
REMARK   47  A    between atoms: _123  and  _124
REMARK   48  A    between atoms: _124  and  _125
REMARK   49  A    between atoms: _125  and  _126
REMARK   50  A    between atoms: _135  and  _137
REMARK   51  A    between atoms: _137  and  _138
REMARK   52  A    between atoms: _137  and  _140
REMARK   53  A    between atoms: _140  and  _141
REMARK   54  A    between atoms: _146  and  _148
REMARK   55  A    between atoms: _148  and  _149
REMARK   56  A    between atoms: _148  and  _151
REMARK   57  A    between atoms: _151  and  _152
REMARK   58  A    between atoms: _152  and  _153
REMARK   59  A    between atoms: _153  and  _154
REMARK   60  A    between atoms: _154  and  _155
REMARK   61  A    between atoms: _159  and  _161
REMARK   62  A    between atoms: _161  and  _162
REMARK   63  A    between atoms: _161  and  _164
REMARK   64  A    between atoms: _164  and  _165
REMARK   65  A    between atoms: _171  and  _173
REMARK   66  A    between atoms: _173  and  _174
REMARK   67  A    between atoms: _173  and  _176
REMARK   68  A    between atoms: _176  and  _177
REMARK   69  A    between atoms: _182  and  _184
REMARK   70  A    between atoms: _184  and  _185
REMARK   71  A    between atoms: _184  and  _187
REMARK   72  A    between atoms: _187  and  _188
REMARK   73  A    between atoms: _193  and  _195
REMARK   74  A    between atoms: _195  and  _196
REMARK   75  A    between atoms: _198  and  _200
REMARK   76  A    between atoms: _200  and  _201
REMARK   77  A    between atoms: _200  and  _203
REMARK   78  A    between atoms: _203  and  _204
REMARK   79  A    between atoms: _204  and  _205
REMARK   80  A    between atoms: _205  and  _206
REMARK   81  A    between atoms: _215  and  _217
REMARK   82  A    between atoms: _217  and  _218
REMARK   83  A    between atoms: _217  and  _220
REMARK   84  A    between atoms: _220  and  _221
REMARK   85  A    between atoms: _225  and  _226
REMARK   86  A    between atoms: _231  and  _233
REMARK   87  A    between atoms: _233  and  _234
REMARK   88  A    between atoms: _237  and  _239
REMARK   89  A    between atoms: _239  and  _240
REMARK   90  A    between atoms: _239  and  _242
REMARK   91  A    between atoms: _242  and  _243
REMARK   92  A    between atoms: _253  and  _255
REMARK   93  A    between atoms: _255  and  _256
REMARK   94  A    between atoms: _255  and  _258
REMARK   95  A    between atoms: _258  and  _259
REMARK   96  A    between atoms: _259  and  _260
REMARK   97  A    between atoms: _263  and  _265
REMARK   98  A    between atoms: _265  and  _266
REMARK   99  A    between atoms: _265  and  _268
REMARK  100  A    between atoms: _268  and  _269
REMARK  101  A    between atoms: _271  and  _273
REMARK  102  A    between atoms: _273  and  _274
REMARK  103  A    between atoms: _273  and  _276
REMARK  104  A    between atoms: _276  and  _277
REMARK  105  A    between atoms: _280  and  _282
REMARK  106  A    between atoms: _282  and  _283
REMARK  107  A    between atoms: _286  and  _288
REMARK  108  A    between atoms: _288  and  _289
REMARK  109  A    between atoms: _288  and  _291
REMARK  110  A    between atoms: _291  and  _292
REMARK  111  A    between atoms: _295  and  _297
REMARK  112  A    between atoms: _297  and  _298
REMARK  113  A    between atoms: _297  and  _300
REMARK  114  A    between atoms: _300  and  _301
REMARK  115  A    between atoms: _301  and  _302
REMARK  116  A    between atoms: _307  and  _309
REMARK  117  A    between atoms: _309  and  _310
REMARK  118  A    between atoms: _313  and  _315
REMARK  119  A    between atoms: _315  and  _316
REMARK  120  A    between atoms: _315  and  _318
REMARK  121  A    between atoms: _318  and  _319
REMARK  122  A    between atoms: _321  and  _323
REMARK  123  A    between atoms: _323  and  _324
REMARK  124  A    between atoms: _326  and  _328
REMARK  125  A    between atoms: _328  and  _329
REMARK  126  A    between atoms: _328  and  _331
REMARK  127  A    between atoms: _331  and  _332
REMARK  128  A    between atoms: _332  and  _333
REMARK  129  A    between atoms: _338  and  _340
REMARK  130  A    between atoms: _340  and  _341
REMARK  131  A    between atoms: _344  and  _345
REMARK  132  A    between atoms: _350  and  _352
REMARK  133  A    between atoms: _352  and  _353
REMARK  134  A    between atoms: _352  and  _355
REMARK  135  A    between atoms: _355  and  _356
REMARK  136  A    between atoms: _361  and  _362
REMARK  137  A    between atoms: _364  and  _366
REMARK  138  A    between atoms: _366  and  _367
REMARK  139  A    between atoms: _366  and  _369
REMARK  140  A    between atoms: _369  and  _370
REMARK  141  A    between atoms: _376  and  _378
REMARK  142  A    between atoms: _378  and  _379
REMARK  143  A    between atoms: _381  and  _383
REMARK  144  A    between atoms: _383  and  _384
REMARK  145  A    between atoms: _383  and  _386
REMARK  146  A    between atoms: _386  and  _387
REMARK  147  A    between atoms: _387  and  _388
REMARK  148  A    between atoms: _393  and  _395
REMARK  149  A    between atoms: _395  and  _396
REMARK  150  A    between atoms: _399  and  _401
REMARK  151  A    between atoms: _401  and  _402
REMARK  152  A    between atoms: _404  and  _406
REMARK  153  A    between atoms: _406  and  _407
REMARK  154  A    between atoms: _406  and  _409
REMARK  155  A    between atoms: _409  and  _410
REMARK  156  A    between atoms: _420  and  _422
REMARK  157  A    between atoms: _422  and  _423
REMARK  158  A    between atoms: _422  and  _425
REMARK  159  A    between atoms: _425  and  _426
REMARK  160  A    between atoms: _432  and  _434
REMARK  161  A    between atoms: _434  and  _435
REMARK  162  A    between atoms: _434  and  _437
REMARK  163  A    between atoms: _440  and  _442
REMARK  164  A    between atoms: _442  and  _443
REMARK  165  A    between atoms: _446  and  _448
REMARK  166  A    between atoms: _448  and  _449
REMARK  167  A    between atoms: _448  and  _451
REMARK  168  A    between atoms: _451  and  _452
REMARK  169  A    between atoms: _452  and  _453
REMARK  170  A    between atoms: _456  and  _458
REMARK  171  A    between atoms: _458  and  _459
REMARK  172  A    between atoms: _458  and  _461
REMARK  173  A    between atoms: _461  and  _462
REMARK  174  A    between atoms: _472  and  _474
REMARK  175  A    between atoms: _474  and  _475
REMARK  176  A    between atoms: _474  and  _477
REMARK  177  A    between atoms: _477  and  _478
REMARK  178  A    between atoms: _478  and  _479
REMARK  179  A    between atoms: _479  and  _480
REMARK  180  A    between atoms: _480  and  _481
REMARK  181  A    between atoms: _485  and  _487
REMARK  182  A    between atoms: _487  and  _488
REMARK  183  A    between atoms: _487  and  _490
REMARK  184  A    between atoms: _490  and  _491
REMARK  185  A    between atoms: _497  and  _499
REMARK  186  A    between atoms: _499  and  _500
REMARK  187  A    between atoms: _499  and  _502
REMARK  188  A    between atoms: _502  and  _503
REMARK  189  A    between atoms: _509  and  _511
REMARK  190  A    between atoms: _511  and  _512
REMARK  191  A    between atoms: _511  and  _514
REMARK  192  A    between atoms: _514  and  _515
REMARK  193  A    between atoms: _515  and  _516
REMARK  194  A    between atoms: _521  and  _523
REMARK  195  A    between atoms: _523  and  _524
REMARK  196  A    between atoms: _527  and  _529
REMARK  197  A    between atoms: _529  and  _530
REMARK  198  A    between atoms: _529  and  _532
REMARK  199  A    between atoms: _532  and  _533
REMARK  200  A    between atoms: _535  and  _537
REMARK  201  A    between atoms: _537  and  _538
REMARK  202  A    between atoms: _540  and  _542
REMARK  203  A    between atoms: _542  and  _543
REMARK  204  A    between atoms: _542  and  _545
REMARK  205  A    between atoms: _545  and  _546
REMARK  206  A    between atoms: _546  and  _547
REMARK  207  A    between atoms: _553  and  _554
REMARK  208  A    between atoms: _559  and  _561
REMARK  209  A    between atoms: _561  and  _562
REMARK  210  A    between atoms: _561  and  _564
REMARK  211  A    between atoms: _564  and  _565
REMARK  212  A    between atoms: _570  and  _571
REMARK  213  A    between atoms: _573  and  _575
REMARK  214  A    between atoms: _575  and  _576
REMARK  215  A    between atoms: _575  and  _578
REMARK  216  A    between atoms: _578  and  _579
REMARK  217  A    between atoms: _579  and  _580
REMARK  218  A    between atoms: _580  and  _581
REMARK  219  A    between atoms: _590  and  _592
REMARK  220  A    between atoms: _592  and  _593
REMARK  221  A    between atoms: _592  and  _595
REMARK  222  A    between atoms: _595  and  _596
REMARK  223  A    between atoms: _601  and  _602
REMARK  224  A    between atoms: _604  and  _606
REMARK  225  A    between atoms: _606  and  _607
REMARK  226  A    between atoms: _606  and  _609
REMARK  227  A    between atoms: _609  and  _610
REMARK  228  A    between atoms: _610  and  _611
REMARK  229  A    between atoms: _614  and  _616
REMARK  230  A    between atoms: _616  and  _617
REMARK  231  A    between atoms: _616  and  _619
REMARK  232  A    between atoms: _619  and  _620
REMARK  233  A    between atoms: _620  and  _621
REMARK  234  A    between atoms: _621  and  _622
REMARK                            x       y       z     vdW  Elec       q    Type
REMARK                         _______ _______ _______ _____ _____    ______ ____
ROOT
ATOM      1  CA  GLN A   3       6.939  21.524  -4.732  0.00  0.00    +0.149 C 
ENDROOT
BRANCH   1   2
ATOM      2  C   GLN A   3       7.734  20.293  -4.249  0.00  0.00    +0.241 C 
ATOM      3  N   ALA A   4       8.845  20.537  -3.558  0.00  0.00    -0.297 N 
ATOM      4  H   ALA A   4       9.063  21.508  -3.257  0.00  0.00    +0.150 HD
ATOM      5  O   GLN A   3       7.381  19.139  -4.544  0.00  0.00    -0.273 OA
BRANCH   3   6
ATOM      6  CA  ALA A   4       9.768  19.440  -3.217  0.00  0.00    +0.149 C 
ATOM      7  CB  ALA A   4      11.095  20.007  -2.682  0.00  0.00    +0.031 C 
BRANCH   6   8
ATOM      8  C   ALA A   4       9.207  18.416  -2.226  0.00  0.00    +0.241 C 
ATOM      9  N   SER A   5       8.350  18.873  -1.318  0.00  0.00    -0.295 N 
ATOM     10  H   SER A   5       8.014  19.855  -1.380  0.00  0.00    +0.150 HD
ATOM     11  O   ALA A   4       9.579  17.223  -2.275  0.00  0.00    -0.273 OA
BRANCH   9  12
ATOM     12  CA  SER A   5       7.871  18.012  -0.230  0.00  0.00    +0.178 C 
BRANCH  12  13
ATOM     13  C   SER A   5       6.434  17.547  -0.491  0.00  0.00    +0.243 C 
ATOM     14  O   SER A   5       5.993  16.516   0.006  0.00  0.00    -0.273 OA
ATOM     15  N   GLY A   6       5.692  18.333  -1.256  0.00  0.00    -0.295 N 
ATOM     16  H   GLY A   6       6.136  19.121  -1.770  0.00  0.00    +0.150 HD
BRANCH  15  17
ATOM     17  CA  GLY A   6       4.251  18.103  -1.385  0.00  0.00    +0.176 C 
BRANCH  17  18
ATOM     18  C   GLY A   6       3.868  17.665  -2.798  0.00  0.00    +0.243 C 
ATOM     19  O   GLY A   6       2.843  17.031  -2.969  0.00  0.00    -0.273 OA
ATOM     20  N   GLN A   7       4.672  18.002  -3.812  0.00  0.00    -0.298 N 
ATOM     21  H   GLN A   7       5.497  18.614  -3.649  0.00  0.00    +0.150 HD
BRANCH  20  22
ATOM     22  CA  GLN A   7       4.373  17.493  -5.168  0.00  0.00    +0.137 C 
BRANCH  22  23
ATOM     23  C   GLN A   7       5.194  16.235  -5.501  0.00  0.00    +0.227 C 
ATOM     24  O   GLN A   7       4.614  15.162  -5.614  0.00  0.00    -0.286 OA
ENDBRANCH  22  23
BRANCH  22  25
ATOM     25  CB  GLN A   7       4.560  18.557  -6.250  0.00  0.00    +0.037 C 
BRANCH  25  26
ATOM     26  CG  GLN A   7       4.091  18.092  -7.661  0.00  0.00    +0.087 C 
BRANCH  26  27
ATOM     27  CD  GLN A   7       4.701  18.905  -8.799  0.00  0.00    +0.219 C 
ATOM     28  OE1 GLN A   7       5.896  19.174  -8.815  0.00  0.00    -0.275 OA
ATOM     29  NE2 GLN A   7       3.867  19.264  -9.788  0.00  0.00    -0.329 N 
ATOM     30 HE21 GLN A   7       2.859  19.015  -9.734  0.00  0.00    +0.145 HD
ATOM     31 HE22 GLN A   7       4.229  19.791 -10.608  0.00  0.00    +0.145 HD
ENDBRANCH  26  27
ENDBRANCH  25  26
ENDBRANCH  22  25
ENDBRANCH  20  22
ENDBRANCH  17  18
ENDBRANCH  15  17
ENDBRANCH  12  13
BRANCH  12  32
ATOM     32  CB  SER A   5       7.956  18.751   1.130  0.00  0.00    +0.166 C 
BRANCH  32  33
ATOM     33  OG  SER A   5       7.104  19.896   1.165  0.00  0.00    -0.380 OA
ATOM     34  H   SER A   5       7.371  20.527   0.450  0.00  0.00    +0.211 HD
ENDBRANCH  32  33
ENDBRANCH  12  32
ENDBRANCH   9  12
ENDBRANCH   6   8
ENDBRANCH   3   6
ENDBRANCH   1   2
BRANCH   1  37
ATOM     35  C   PHE A   2       6.077  21.989  -2.529  0.00  0.00    +0.241 C 
ATOM     36  O   PHE A   2       5.603  20.850  -2.462  0.00  0.00    -0.273 OA
ATOM     37  N   GLN A   3       6.723  22.429  -3.597  0.00  0.00    -0.297 N 
ATOM     38  H   GLN A   3       7.074  23.407  -3.632  0.00  0.00    +0.150 HD
BRANCH  35  39
ATOM     39  CA  PHE A   2       5.971  22.968  -1.348  0.00  0.00    +0.153 C 
BRANCH  39  42
ATOM     40  C   PHE A   1       8.308  22.914  -0.744  0.00  0.00    +0.239 C 
ATOM     41  O   PHE A   1       8.242  21.696  -0.505  0.00  0.00    -0.274 OA
ATOM     42  N   PHE A   2       7.262  23.640  -1.122  0.00  0.00    -0.297 N 
ATOM     43  H   PHE A   2       7.353  24.667  -1.256  0.00  0.00    +0.150 HD
BRANCH  40  44
ATOM     44  CA  PHE A   1       9.628  23.642  -0.613  0.00  0.00    +0.149 C 
BRANCH  44  45
ATOM     45  N   PHE A   1       9.763  24.679  -1.639  0.00  0.00    -0.238 NA
ATOM     46  H   PHE A   1       9.825  25.680  -1.365  0.00  0.00    +0.142 HD
ENDBRANCH  44  45
BRANCH  44  47
ATOM     47  CB  PHE A   1       9.825  24.185   0.814  0.00  0.00    +0.053 C 
BRANCH  47  48
ATOM     48  CG  PHE A   1      11.290  24.181   1.239  0.00  0.00    -0.020 A 
ATOM     49  CD2 PHE A   1      11.900  22.993   1.690  0.00  0.00    -0.004 A 
ATOM     50  CE2 PHE A   1      13.268  22.977   2.042  0.00  0.00    -0.000 A 
ATOM     51  CZ  PHE A   1      14.034  24.158   1.922  0.00  0.00    -0.000 A 
ATOM     52  CE1 PHE A   1      13.426  25.326   1.477  0.00  0.00    -0.000 A 
ATOM     53  CD1 PHE A   1      12.066  25.326   1.121  0.00  0.00    -0.004 A 
ENDBRANCH  47  48
ENDBRANCH  44  47
ENDBRANCH  40  44
ENDBRANCH  39  42
BRANCH  39  54
ATOM     54  CB  PHE A   2       4.817  23.972  -1.537  0.00  0.00    +0.055 C 
BRANCH  54  55
ATOM     55  CG  PHE A   2       3.492  23.305  -1.895  0.00  0.00    -0.020 A 
ATOM     56  CD2 PHE A   2       3.011  22.255  -1.142  0.00  0.00    -0.004 A 
ATOM     57  CE2 PHE A   2       1.770  21.607  -1.467  0.00  0.00    -0.000 A 
ATOM     58  CZ  PHE A   2       1.037  22.037  -2.553  0.00  0.00    -0.000 A 
ATOM     59  CE1 PHE A   2       1.523  23.102  -3.325  0.00  0.00    -0.000 A 
ATOM     60  CD1 PHE A   2       2.758  23.723  -2.995  0.00  0.00    -0.004 A 
ENDBRANCH  54  55
ENDBRANCH  39  54
ENDBRANCH  35  39
ENDBRANCH   1  37
BRANCH   1  61
ATOM     61  CB  GLN A   3       7.737  22.227  -5.846  0.00  0.00    +0.039 C 
BRANCH  61  62
ATOM     62  CG  GLN A   3       7.790  21.401  -7.150  0.00  0.00    +0.087 C 
BRANCH  62  63
ATOM     63  CD  GLN A   3       8.784  20.227  -7.057  0.00  0.00    +0.219 C 
ATOM     64  OE1 GLN A   3       9.912  20.392  -6.577  0.00  0.00    -0.275 OA
ATOM     65  NE2 GLN A   3       8.364  19.034  -7.525  0.00  0.00    -0.329 N 
ATOM     66 HE21 GLN A   3       8.997  18.210  -7.490  0.00  0.00    +0.145 HD
ATOM     67 HE22 GLN A   3       7.407  18.938  -7.921  0.00  0.00    +0.145 HD
ENDBRANCH  62  63
ENDBRANCH  61  62
ENDBRANCH   1  61
TORSDOF 26
REMARK  Name = ../refined-set-2016/4f0c/4f0c_pocket.pdb
REMARK  234 active torsions:
REMARK  status: ('A' for Active; 'I' for Inactive)
REMARK    1  A    between atoms: _1  and  _3
REMARK    2  A    between atoms: _3  and  _4
REMARK    3  A    between atoms: _3  and  _6
REMARK    4  A    between atoms: _6  and  _7
REMARK    5  A    between atoms: _12  and  _14
REMARK    6  A    between atoms: _14  and  _15
REMARK    7  A    between atoms: _14  and  _17
REMARK    8  A    between atoms: _17  and  _18
REMARK    9  A    between atoms: _23  and  _25
REMARK   10  A    between atoms: _25  and  _26
REMARK   11  A    between atoms: _25  and  _28
REMARK   12  A    between atoms: _31  and  _33
REMARK   13  A    between atoms: _33  and  _34
REMARK   14  A    between atoms: _37  and  _38
REMARK   15  A    between atoms: _43  and  _45
REMARK   16  A    between atoms: _45  and  _46
REMARK   17  A    between atoms: _45  and  _48
REMARK   18  A    between atoms: _48  and  _49
REMARK   19  A    between atoms: _54  and  _56
REMARK   20  A    between atoms: _56  and  _57
REMARK   21  A    between atoms: _59  and  _61
REMARK   22  A    between atoms: _61  and  _62
REMARK   23  A    between atoms: _61  and  _64
REMARK   24  A    between atoms: _64  and  _65
REMARK   25  A    between atoms: _75  and  _77
REMARK   26  A    between atoms: _77  and  _78
REMARK   27  A    between atoms: _77  and  _80
REMARK   28  A    between atoms: _80  and  _81
REMARK   29  A    between atoms: _81  and  _82
REMARK   30  A    between atoms: _82  and  _83
REMARK   31  A    between atoms: _83  and  _84
REMARK   32  A    between atoms: _88  and  _90
REMARK   33  A    between atoms: _90  and  _91
REMARK   34  A    between atoms: _90  and  _93
REMARK   35  A    between atoms: _96  and  _98
REMARK   36  A    between atoms: _98  and  _99
REMARK   37  A    between atoms: _98  and  _101
REMARK   38  A    between atoms: _104  and  _106
REMARK   39  A    between atoms: _106  and  _107
REMARK   40  A    between atoms: _106  and  _109
REMARK   41  A    between atoms: _109  and  _110
REMARK   42  A    between atoms: _113  and  _115
REMARK   43  A    between atoms: _115  and  _116
REMARK   44  A    between atoms: _118  and  _120
REMARK   45  A    between atoms: _120  and  _121
REMARK   46  A    between atoms: _120  and  _123
REMARK   47  A    between atoms: _123  and  _124
REMARK   48  A    between atoms: _124  and  _125
REMARK   49  A    between atoms: _125  and  _126
REMARK   50  A    between atoms: _135  and  _137
REMARK   51  A    between atoms: _137  and  _138
REMARK   52  A    between atoms: _137  and  _140
REMARK   53  A    between atoms: _140  and  _141
REMARK   54  A    between atoms: _146  and  _148
REMARK   55  A    between atoms: _148  and  _149
REMARK   56  A    between atoms: _148  and  _151
REMARK   57  A    between atoms: _151  and  _152
REMARK   58  A    between atoms: _152  and  _153
REMARK   59  A    between atoms: _153  and  _154
REMARK   60  A    between atoms: _154  and  _155
REMARK   61  A    between atoms: _159  and  _161
REMARK   62  A    between atoms: _161  and  _162
REMARK   63  A    between atoms: _161  and  _164
REMARK   64  A    between atoms: _164  and  _165
REMARK   65  A    between atoms: _171  and  _173
REMARK   66  A    between atoms: _173  and  _174
REMARK   67  A    between atoms: _173  and  _176
REMARK   68  A    between atoms: _176  and  _177
REMARK   69  A    between atoms: _182  and  _184
REMARK   70  A    between atoms: _184  and  _185
REMARK   71  A    between atoms: _184  and  _187
REMARK   72  A    between atoms: _187  and  _188
REMARK   73  A    between atoms: _193  and  _195
REMARK   74  A    between atoms: _195  and  _196
REMARK   75  A    between atoms: _198  and  _200
REMARK   76  A    between atoms: _200  and  _201
REMARK   77  A    between atoms: _200  and  _203
REMARK   78  A    between atoms: _203  and  _204
REMARK   79  A    between atoms: _204  and  _205
REMARK   80  A    between atoms: _205  and  _206
REMARK   81  A    between atoms: _215  and  _217
REMARK   82  A    between atoms: _217  and  _218
REMARK   83  A    between atoms: _217  and  _220
REMARK   84  A    between atoms: _220  and  _221
REMARK   85  A    between atoms: _225  and  _226
REMARK   86  A    between atoms: _231  and  _233
REMARK   87  A    between atoms: _233  and  _234
REMARK   88  A    between atoms: _237  and  _239
REMARK   89  A    between atoms: _239  and  _240
REMARK   90  A    between atoms: _239  and  _242
REMARK   91  A    between atoms: _242  and  _243
REMARK   92  A    between atoms: _253  and  _255
REMARK   93  A    between atoms: _255  and  _256
REMARK   94  A    between atoms: _255  and  _258
REMARK   95  A    between atoms: _258  and  _259
REMARK   96  A    between atoms: _259  and  _260
REMARK   97  A    between atoms: _263  and  _265
REMARK   98  A    between atoms: _265  and  _266
REMARK   99  A    between atoms: _265  and  _268
REMARK  100  A    between atoms: _268  and  _269
REMARK  101  A    between atoms: _271  and  _273
REMARK  102  A    between atoms: _273  and  _274
REMARK  103  A    between atoms: _273  and  _276
REMARK  104  A    between atoms: _276  and  _277
REMARK  105  A    between atoms: _280  and  _282
REMARK  106  A    between atoms: _282  and  _283
REMARK  107  A    between atoms: _286  and  _288
REMARK  108  A    between atoms: _288  and  _289
REMARK  109  A    between atoms: _288  and  _291
REMARK  110  A    between atoms: _291  and  _292
REMARK  111  A    between atoms: _295  and  _297
REMARK  112  A    between atoms: _297  and  _298
REMARK  113  A    between atoms: _297  and  _300
REMARK  114  A    between atoms: _300  and  _301
REMARK  115  A    between atoms: _301  and  _302
REMARK  116  A    between atoms: _307  and  _309
REMARK  117  A    between atoms: _309  and  _310
REMARK  118  A    between atoms: _313  and  _315
REMARK  119  A    between atoms: _315  and  _316
REMARK  120  A    between atoms: _315  and  _318
REMARK  121  A    between atoms: _318  and  _319
REMARK  122  A    between atoms: _321  and  _323
REMARK  123  A    between atoms: _323  and  _324
REMARK  124  A    between atoms: _326  and  _328
REMARK  125  A    between atoms: _328  and  _329
REMARK  126  A    between atoms: _328  and  _331
REMARK  127  A    between atoms: _331  and  _332
REMARK  128  A    between atoms: _332  and  _333
REMARK  129  A    between atoms: _338  and  _340
REMARK  130  A    between atoms: _340  and  _341
REMARK  131  A    between atoms: _344  and  _345
REMARK  132  A    between atoms: _350  and  _352
REMARK  133  A    between atoms: _352  and  _353
REMARK  134  A    between atoms: _352  and  _355
REMARK  135  A    between atoms: _355  and  _356
REMARK  136  A    between atoms: _361  and  _362
REMARK  137  A    between atoms: _364  and  _366
REMARK  138  A    between atoms: _366  and  _367
REMARK  139  A    between atoms: _366  and  _369
REMARK  140  A    between atoms: _369  and  _370
REMARK  141  A    between atoms: _376  and  _378
REMARK  142  A    between atoms: _378  and  _379
REMARK  143  A    between atoms: _381  and  _383
REMARK  144  A    between atoms: _383  and  _384
REMARK  145  A    between atoms: _383  and  _386
REMARK  146  A    between atoms: _386  and  _387
REMARK  147  A    between atoms: _387  and  _388
REMARK  148  A    between atoms: _393  and  _395
REMARK  149  A    between atoms: _395  and  _396
REMARK  150  A    between atoms: _399  and  _401
REMARK  151  A    between atoms: _401  and  _402
REMARK  152  A    between atoms: _404  and  _406
REMARK  153  A    between atoms: _406  and  _407
REMARK  154  A    between atoms: _406  and  _409
REMARK  155  A    between atoms: _409  and  _410
REMARK  156  A    between atoms: _420  and  _422
REMARK  157  A    between atoms: _422  and  _423
REMARK  158  A    between atoms: _422  and  _425
REMARK  159  A    between atoms: _425  and  _426
REMARK  160  A    between atoms: _432  and  _434
REMARK  161  A    between atoms: _434  and  _435
REMARK  162  A    between atoms: _434  and  _437
REMARK  163  A    between atoms: _440  and  _442
REMARK  164  A    between atoms: _442  and  _443
REMARK  165  A    between atoms: _446  and  _448
REMARK  166  A    between atoms: _448  and  _449
REMARK  167  A    between atoms: _448  and  _451
REMARK  168  A    between atoms: _451  and  _452
REMARK  169  A    between atoms: _452  and  _453
REMARK  170  A    between atoms: _456  and  _458
REMARK  171  A    between atoms: _458  and  _459
REMARK  172  A    between atoms: _458  and  _461
REMARK  173  A    between atoms: _461  and  _462
REMARK  174  A    between atoms: _472  and  _474
REMARK  175  A    between atoms: _474  and  _475
REMARK  176  A    between atoms: _474  and  _477
REMARK  177  A    between atoms: _477  and  _478
REMARK  178  A    between atoms: _478  and  _479
REMARK  179  A    between atoms: _479  and  _480
REMARK  180  A    between atoms: _480  and  _481
REMARK  181  A    between atoms: _485  and  _487
REMARK  182  A    between atoms: _487  and  _488
REMARK  183  A    between atoms: _487  and  _490
REMARK  184  A    between atoms: _490  and  _491
REMARK  185  A    between atoms: _497  and  _499
REMARK  186  A    between atoms: _499  and  _500
REMARK  187  A    between atoms: _499  and  _502
REMARK  188  A    between atoms: _502  and  _503
REMARK  189  A    between atoms: _509  and  _511
REMARK  190  A    between atoms: _511  and  _512
REMARK  191  A    between atoms: _511  and  _514
REMARK  192  A    between atoms: _514  and  _515
REMARK  193  A    between atoms: _515  and  _516
REMARK  194  A    between atoms: _521  and  _523
REMARK  195  A    between atoms: _523  and  _524
REMARK  196  A    between atoms: _527  and  _529
REMARK  197  A    between atoms: _529  and  _530
REMARK  198  A    between atoms: _529  and  _532
REMARK  199  A    between atoms: _532  and  _533
REMARK  200  A    between atoms: _535  and  _537
REMARK  201  A    between atoms: _537  and  _538
REMARK  202  A    between atoms: _540  and  _542
REMARK  203  A    between atoms: _542  and  _543
REMARK  204  A    between atoms: _542  and  _545
REMARK  205  A    between atoms: _545  and  _546
REMARK  206  A    between atoms: _546  and  _547
REMARK  207  A    between atoms: _553  and  _554
REMARK  208  A    between atoms: _559  and  _561
REMARK  209  A    between atoms: _561  and  _562
REMARK  210  A    between atoms: _561  and  _564
REMARK  211  A    between atoms: _564  and  _565
REMARK  212  A    between atoms: _570  and  _571
REMARK  213  A    between atoms: _573  and  _575
REMARK  214  A    between atoms: _575  and  _576
REMARK  215  A    between atoms: _575  and  _578
REMARK  216  A    between atoms: _578  and  _579
REMARK  217  A    between atoms: _579  and  _580
REMARK  218  A    between atoms: _580  and  _581
REMARK  219  A    between atoms: _590  and  _592
REMARK  220  A    between atoms: _592  and  _593
REMARK  221  A    between atoms: _592  and  _595
REMARK  222  A    between atoms: _595  and  _596
REMARK  223  A    between atoms: _601  and  _602
REMARK  224  A    between atoms: _604  and  _606
REMARK  225  A    between atoms: _606  and  _607
REMARK  226  A    between atoms: _606  and  _609
REMARK  227  A    between atoms: _609  and  _610
REMARK  228  A    between atoms: _610  and  _611
REMARK  229  A    between atoms: _614  and  _616
REMARK  230  A    between atoms: _616  and  _617
REMARK  231  A    between atoms: _616  and  _619
REMARK  232  A    between atoms: _619  and  _620
REMARK  233  A    between atoms: _620  and  _621
REMARK  234  A    between atoms: _621  and  _622
REMARK                            x       y       z     vdW  Elec       q    Type
REMARK                         _______ _______ _______ _____ _____    ______ ____
ROOT
ATOM      1  CA  TYR A   2       3.399  12.133  -3.375  0.00  0.00    +0.141 C 
ENDROOT
BRANCH   1   3
ATOM      2  C   PRO A   1       5.819  12.016  -3.353  0.00  0.00    +0.239 C 
ATOM      3  N   TYR A   2       4.715  12.755  -3.317  0.00  0.00    -0.298 N 
ATOM      4  H   TYR A   2       4.792  13.790  -3.247  0.00  0.00    +0.150 HD
ATOM      5  O   PRO A   1       5.817  10.811  -3.568  0.00  0.00    -0.274 OA
BRANCH   2  10
ATOM      6  N   PRO A   1       7.182  13.993  -3.955  0.00  0.00    -0.210 NA
ATOM      7  CD  PRO A   1       7.527  15.126  -3.069  0.00  0.00    +0.089 C 
ATOM      8  CG  PRO A   1       8.282  14.428  -1.913  0.00  0.00    +0.021 C 
ATOM      9  CB  PRO A   1       7.445  13.151  -1.769  0.00  0.00    +0.028 C 
ATOM     10  CA  PRO A   1       7.170  12.726  -3.226  0.00  0.00    +0.149 C 
ENDBRANCH   2  10
ENDBRANCH   1   3
BRANCH   1  11
ATOM     11  C   TYR A   2       3.067  11.724  -4.810  0.00  0.00    +0.227 C 
ATOM     12  O   TYR A   2       2.521  10.655  -5.043  0.00  0.00    -0.286 OA
ENDBRANCH   1  11
BRANCH   1  13
ATOM     13  CB  TYR A   2       2.329  13.114  -2.857  0.00  0.00    +0.054 C 
BRANCH  13  14
ATOM     14  CG  TYR A   2       2.453  13.303  -1.359  0.00  0.00    -0.020 A 
ATOM     15  CD2 TYR A   2       1.840  12.420  -0.470  0.00  0.00    -0.001 A 
ATOM     16  CE2 TYR A   2       1.956  12.591   0.939  0.00  0.00    +0.036 A 
ATOM     17  CZ  TYR A   2       2.732  13.632   1.442  0.00  0.00    +0.134 A 
ATOM     18  CE1 TYR A   2       3.364  14.505   0.568  0.00  0.00    +0.036 A 
ATOM     19  CD1 TYR A   2       3.222  14.338  -0.829  0.00  0.00    -0.001 A 
BRANCH  17  20
ATOM     20  OH  TYR A   2       2.875  13.804   2.820  0.00  0.00    -0.506 OA
ATOM     21  HH  TYR A   2       2.364  13.101   3.294  0.00  0.00    +0.292 HD
ENDBRANCH  17  20
ENDBRANCH  13  14
ENDBRANCH   1  13
TORSDOF 6
REMARK  Name = ../refined-set-2016/4f0c/4f0c_pocket.pdb
REMARK  234 active torsions:
REMARK  status: ('A' for Active; 'I' for Inactive)
REMARK    1  A    between atoms: _1  and  _3
REMARK    2  A    between atoms: _3  and  _4
REMARK    3  A    between atoms: _3  and  _6
REMARK    4  A    between atoms: _6  and  _7
REMARK    5  A    between atoms: _12  and  _14
REMARK    6  A    between atoms: _14  and  _15
REMARK    7  A    between atoms: _14  and  _17
REMARK    8  A    between atoms: _17  and  _18
REMARK    9  A    between atoms: _23  and  _25
REMARK   10  A    between atoms: _25  and  _26
REMARK   11  A    between atoms: _25  and  _28
REMARK   12  A    between atoms: _31  and  _33
REMARK   13  A    between atoms: _33  and  _34
REMARK   14  A    between atoms: _37  and  _38
REMARK   15  A    between atoms: _43  and  _45
REMARK   16  A    between atoms: _45  and  _46
REMARK   17  A    between atoms: _45  and  _48
REMARK   18  A    between atoms: _48  and  _49
REMARK   19  A    between atoms: _54  and  _56
REMARK   20  A    between atoms: _56  and  _57
REMARK   21  A    between atoms: _59  and  _61
REMARK   22  A    between atoms: _61  and  _62
REMARK   23  A    between atoms: _61  and  _64
REMARK   24  A    between atoms: _64  and  _65
REMARK   25  A    between atoms: _75  and  _77
REMARK   26  A    between atoms: _77  and  _78
REMARK   27  A    between atoms: _77  and  _80
REMARK   28  A    between atoms: _80  and  _81
REMARK   29  A    between atoms: _81  and  _82
REMARK   30  A    between atoms: _82  and  _83
REMARK   31  A    between atoms: _83  and  _84
REMARK   32  A    between atoms: _88  and  _90
REMARK   33  A    between atoms: _90  and  _91
REMARK   34  A    between atoms: _90  and  _93
REMARK   35  A    between atoms: _96  and  _98
REMARK   36  A    between atoms: _98  and  _99
REMARK   37  A    between atoms: _98  and  _101
REMARK   38  A    between atoms: _104  and  _106
REMARK   39  A    between atoms: _106  and  _107
REMARK   40  A    between atoms: _106  and  _109
REMARK   41  A    between atoms: _109  and  _110
REMARK   42  A    between atoms: _113  and  _115
REMARK   43  A    between atoms: _115  and  _116
REMARK   44  A    between atoms: _118  and  _120
REMARK   45  A    between atoms: _120  and  _121
REMARK   46  A    between atoms: _120  and  _123
REMARK   47  A    between atoms: _123  and  _124
REMARK   48  A    between atoms: _124  and  _125
REMARK   49  A    between atoms: _125  and  _126
REMARK   50  A    between atoms: _135  and  _137
REMARK   51  A    between atoms: _137  and  _138
REMARK   52  A    between atoms: _137  and  _140
REMARK   53  A    between atoms: _140  and  _141
REMARK   54  A    between atoms: _146  and  _148
REMARK   55  A    between atoms: _148  and  _149
REMARK   56  A    between atoms: _148  and  _151
REMARK   57  A    between atoms: _151  and  _152
REMARK   58  A    between atoms: _152  and  _153
REMARK   59  A    between atoms: _153  and  _154
REMARK   60  A    between atoms: _154  and  _155
REMARK   61  A    between atoms: _159  and  _161
REMARK   62  A    between atoms: _161  and  _162
REMARK   63  A    between atoms: _161  and  _164
REMARK   64  A    between atoms: _164  and  _165
REMARK   65  A    between atoms: _171  and  _173
REMARK   66  A    between atoms: _173  and  _174
REMARK   67  A    between atoms: _173  and  _176
REMARK   68  A    between atoms: _176  and  _177
REMARK   69  A    between atoms: _182  and  _184
REMARK   70  A    between atoms: _184  and  _185
REMARK   71  A    between atoms: _184  and  _187
REMARK   72  A    between atoms: _187  and  _188
REMARK   73  A    between atoms: _193  and  _195
REMARK   74  A    between atoms: _195  and  _196
REMARK   75  A    between atoms: _198  and  _200
REMARK   76  A    between atoms: _200  and  _201
REMARK   77  A    between atoms: _200  and  _203
REMARK   78  A    between atoms: _203  and  _204
REMARK   79  A    between atoms: _204  and  _205
REMARK   80  A    between atoms: _205  and  _206
REMARK   81  A    between atoms: _215  and  _217
REMARK   82  A    between atoms: _217  and  _218
REMARK   83  A    between atoms: _217  and  _220
REMARK   84  A    between atoms: _220  and  _221
REMARK   85  A    between atoms: _225  and  _226
REMARK   86  A    between atoms: _231  and  _233
REMARK   87  A    between atoms: _233  and  _234
REMARK   88  A    between atoms: _237  and  _239
REMARK   89  A    between atoms: _239  and  _240
REMARK   90  A    between atoms: _239  and  _242
REMARK   91  A    between atoms: _242  and  _243
REMARK   92  A    between atoms: _253  and  _255
REMARK   93  A    between atoms: _255  and  _256
REMARK   94  A    between atoms: _255  and  _258
REMARK   95  A    between atoms: _258  and  _259
REMARK   96  A    between atoms: _259  and  _260
REMARK   97  A    between atoms: _263  and  _265
REMARK   98  A    between atoms: _265  and  _266
REMARK   99  A    between atoms: _265  and  _268
REMARK  100  A    between atoms: _268  and  _269
REMARK  101  A    between atoms: _271  and  _273
REMARK  102  A    between atoms: _273  and  _274
REMARK  103  A    between atoms: _273  and  _276
REMARK  104  A    between atoms: _276  and  _277
REMARK  105  A    between atoms: _280  and  _282
REMARK  106  A    between atoms: _282  and  _283
REMARK  107  A    between atoms: _286  and  _288
REMARK  108  A    between atoms: _288  and  _289
REMARK  109  A    between atoms: _288  and  _291
REMARK  110  A    between atoms: _291  and  _292
REMARK  111  A    between atoms: _295  and  _297
REMARK  112  A    between atoms: _297  and  _298
REMARK  113  A    between atoms: _297  and  _300
REMARK  114  A    between atoms: _300  and  _301
REMARK  115  A    between atoms: _301  and  _302
REMARK  116  A    between atoms: _307  and  _309
REMARK  117  A    between atoms: _309  and  _310
REMARK  118  A    between atoms: _313  and  _315
REMARK  119  A    between atoms: _315  and  _316
REMARK  120  A    between atoms: _315  and  _318
REMARK  121  A    between atoms: _318  and  _319
REMARK  122  A    between atoms: _321  and  _323
REMARK  123  A    between atoms: _323  and  _324
REMARK  124  A    between atoms: _326  and  _328
REMARK  125  A    between atoms: _328  and  _329
REMARK  126  A    between atoms: _328  and  _331
REMARK  127  A    between atoms: _331  and  _332
REMARK  128  A    between atoms: _332  and  _333
REMARK  129  A    between atoms: _338  and  _340
REMARK  130  A    between atoms: _340  and  _341
REMARK  131  A    between atoms: _344  and  _345
REMARK  132  A    between atoms: _350  and  _352
REMARK  133  A    between atoms: _352  and  _353
REMARK  134  A    between atoms: _352  and  _355
REMARK  135  A    between atoms: _355  and  _356
REMARK  136  A    between atoms: _361  and  _362
REMARK  137  A    between atoms: _364  and  _366
REMARK  138  A    between atoms: _366  and  _367
REMARK  139  A    between atoms: _366  and  _369
REMARK  140  A    between atoms: _369  and  _370
REMARK  141  A    between atoms: _376  and  _378
REMARK  142  A    between atoms: _378  and  _379
REMARK  143  A    between atoms: _381  and  _383
REMARK  144  A    between atoms: _383  and  _384
REMARK  145  A    between atoms: _383  and  _386
REMARK  146  A    between atoms: _386  and  _387
REMARK  147  A    between atoms: _387  and  _388
REMARK  148  A    between atoms: _393  and  _395
REMARK  149  A    between atoms: _395  and  _396
REMARK  150  A    between atoms: _399  and  _401
REMARK  151  A    between atoms: _401  and  _402
REMARK  152  A    between atoms: _404  and  _406
REMARK  153  A    between atoms: _406  and  _407
REMARK  154  A    between atoms: _406  and  _409
REMARK  155  A    between atoms: _409  and  _410
REMARK  156  A    between atoms: _420  and  _422
REMARK  157  A    between atoms: _422  and  _423
REMARK  158  A    between atoms: _422  and  _425
REMARK  159  A    between atoms: _425  and  _426
REMARK  160  A    between atoms: _432  and  _434
REMARK  161  A    between atoms: _434  and  _435
REMARK  162  A    between atoms: _434  and  _437
REMARK  163  A    between atoms: _440  and  _442
REMARK  164  A    between atoms: _442  and  _443
REMARK  165  A    between atoms: _446  and  _448
REMARK  166  A    between atoms: _448  and  _449
REMARK  167  A    between atoms: _448  and  _451
REMARK  168  A    between atoms: _451  and  _452
REMARK  169  A    between atoms: _452  and  _453
REMARK  170  A    between atoms: _456  and  _458
REMARK  171  A    between atoms: _458  and  _459
REMARK  172  A    between atoms: _458  and  _461
REMARK  173  A    between atoms: _461  and  _462
REMARK  174  A    between atoms: _472  and  _474
REMARK  175  A    between atoms: _474  and  _475
REMARK  176  A    between atoms: _474  and  _477
REMARK  177  A    between atoms: _477  and  _478
REMARK  178  A    between atoms: _478  and  _479
REMARK  179  A    between atoms: _479  and  _480
REMARK  180  A    between atoms: _480  and  _481
REMARK  181  A    between atoms: _485  and  _487
REMARK  182  A    between atoms: _487  and  _488
REMARK  183  A    between atoms: _487  and  _490
REMARK  184  A    between atoms: _490  and  _491
REMARK  185  A    between atoms: _497  and  _499
REMARK  186  A    between atoms: _499  and  _500
REMARK  187  A    between atoms: _499  and  _502
REMARK  188  A    between atoms: _502  and  _503
REMARK  189  A    between atoms: _509  and  _511
REMARK  190  A    between atoms: _511  and  _512
REMARK  191  A    between atoms: _511  and  _514
REMARK  192  A    between atoms: _514  and  _515
REMARK  193  A    between atoms: _515  and  _516
REMARK  194  A    between atoms: _521  and  _523
REMARK  195  A    between atoms: _523  and  _524
REMARK  196  A    between atoms: _527  and  _529
REMARK  197  A    between atoms: _529  and  _530
REMARK  198  A    between atoms: _529  and  _532
REMARK  199  A    between atoms: _532  and  _533
REMARK  200  A    between atoms: _535  and  _537
REMARK  201  A    between atoms: _537  and  _538
REMARK  202  A    between atoms: _540  and  _542
REMARK  203  A    between atoms: _542  and  _543
REMARK  204  A    between atoms: _542  and  _545
REMARK  205  A    between atoms: _545  and  _546
REMARK  206  A    between atoms: _546  and  _547
REMARK  207  A    between atoms: _553  and  _554
REMARK  208  A    between atoms: _559  and  _561
REMARK  209  A    between atoms: _561  and  _562
REMARK  210  A    between atoms: _561  and  _564
REMARK  211  A    between atoms: _564  and  _565
REMARK  212  A    between atoms: _570  and  _571
REMARK  213  A    between atoms: _573  and  _575
REMARK  214  A    between atoms: _575  and  _576
REMARK  215  A    between atoms: _575  and  _578
REMARK  216  A    between atoms: _578  and  _579
REMARK  217  A    between atoms: _579  and  _580
REMARK  218  A    between atoms: _580  and  _581
REMARK  219  A    between atoms: _590  and  _592
REMARK  220  A    between atoms: _592  and  _593
REMARK  221  A    between atoms: _592  and  _595
REMARK  222  A    between atoms: _595  and  _596
REMARK  223  A    between atoms: _601  and  _602
REMARK  224  A    between atoms: _604  and  _606
REMARK  225  A    between atoms: _606  and  _607
REMARK  226  A    between atoms: _606  and  _609
REMARK  227  A    between atoms: _609  and  _610
REMARK  228  A    between atoms: _610  and  _611
REMARK  229  A    between atoms: _614  and  _616
REMARK  230  A    between atoms: _616  and  _617
REMARK  231  A    between atoms: _616  and  _619
REMARK  232  A    between atoms: _619  and  _620
REMARK  233  A    between atoms: _620  and  _621
REMARK  234  A    between atoms: _621  and  _622
REMARK                            x       y       z     vdW  Elec       q    Type
REMARK                         _______ _______ _______ _____ _____    ______ ____
ROOT
ATOM      1  C   ARG A   1      -3.594   8.433  -2.655  0.00  0.00    +0.238 C 
ATOM      2  O   ARG A   1      -3.833   9.607  -2.329  0.00  0.00    -0.274 OA
ATOM      3  N   TYR A   2      -2.616   8.111  -3.494  0.00  0.00    -0.298 N 
ATOM      4  H   TYR A   2      -2.482   7.117  -3.769  0.00  0.00    +0.150 HD
ENDROOT
BRANCH   1   5
ATOM      5  CA  ARG A   1      -4.426   7.274  -2.106  0.00  0.00    +0.145 C 
BRANCH   5   6
ATOM      6  N   ARG A   1      -4.739   6.316  -3.164  0.00  0.00    -0.238 NA
ATOM      7  H   ARG A   1      -4.490   5.314  -3.038  0.00  0.00    +0.142 HD
ENDBRANCH   5   6
BRANCH   5   8
ATOM      8  CB  ARG A   1      -3.685   6.564  -0.945  0.00  0.00    +0.030 C 
BRANCH   8   9
ATOM      9  CG  ARG A   1      -2.744   7.485  -0.111  0.00  0.00    +0.045 C 
BRANCH   9  10
ATOM     10  CD  ARG A   1      -2.171   6.742   1.141  0.00  0.00    +0.174 C 
BRANCH  10  11
ATOM     11  NE  ARG A   1      -1.159   7.532   1.846  0.00  0.00    -0.265 N 
ATOM     12  CZ  ARG A   1      -1.415   8.513   2.716  0.00  0.00    +0.342 C 
ATOM     13  NH2 ARG A   1      -0.416   9.186   3.282  0.00  0.00    -0.292 N 
ATOM     14 HH21 ARG A   1      -0.621   9.949   3.959  0.00  0.00    +0.255 HD
ATOM     15 HH22 ARG A   1       0.569   8.949   3.048  0.00  0.00    +0.255 HD
ATOM     16  NH1 ARG A   1      -2.659   8.839   3.025  0.00  0.00    -0.292 N 
ATOM     17 HH11 ARG A   1      -2.842   9.605   3.704  0.00  0.00    +0.255 HD
ATOM     18 HH12 ARG A   1      -3.454   8.329   2.589  0.00  0.00    +0.255 HD
ATOM     19  HE  ARG A   1      -0.161   7.312   1.654  0.00  0.00    +0.259 HD
ENDBRANCH  10  11
ENDBRANCH   9  10
ENDBRANCH   8   9
ENDBRANCH   5   8
ENDBRANCH   1   5
BRANCH   3  20
ATOM     20  CA  TYR A   2      -1.722   9.141  -4.038  0.00  0.00    +0.141 C 
BRANCH  20  21
ATOM     21  C   TYR A   2      -2.318   9.868  -5.241  0.00  0.00    +0.227 C 
ATOM     22  O   TYR A   2      -2.021  11.033  -5.458  0.00  0.00    -0.286 OA
ENDBRANCH  20  21
BRANCH  20  23
ATOM     23  CB  TYR A   2      -0.345   8.534  -4.331  0.00  0.00    +0.054 C 
BRANCH  23  24
ATOM     24  CG  TYR A   2       0.225   7.983  -3.050  0.00  0.00    -0.020 A 
ATOM     25  CD2 TYR A   2       0.690   8.847  -2.064  0.00  0.00    -0.001 A 
ATOM     26  CE2 TYR A   2       1.180   8.361  -0.860  0.00  0.00    +0.036 A 
ATOM     27  CZ  TYR A   2       1.181   7.010  -0.623  0.00  0.00    +0.134 A 
ATOM     28  CE1 TYR A   2       0.709   6.122  -1.587  0.00  0.00    +0.036 A 
ATOM     29  CD1 TYR A   2       0.226   6.609  -2.785  0.00  0.00    -0.001 A 
BRANCH  27  30
ATOM     30  OH  TYR A   2       1.670   6.547   0.581  0.00  0.00    -0.506 OA
ATOM     31  HH  TYR A   2       1.958   7.315   1.136  0.00  0.00    +0.292 HD
ENDBRANCH  27  30
ENDBRANCH  23  24
ENDBRANCH  20  23
ENDBRANCH   3  20
TORSDOF 11
REMARK  Name = ../refined-set-2016/4f0c/4f0c_pocket.pdb
REMARK  234 active torsions:
REMARK  status: ('A' for Active; 'I' for Inactive)
REMARK    1  A    between atoms: _1  and  _3
REMARK    2  A    between atoms: _3  and  _4
REMARK    3  A    between atoms: _3  and  _6
REMARK    4  A    between atoms: _6  and  _7
REMARK    5  A    between atoms: _12  and  _14
REMARK    6  A    between atoms: _14  and  _15
REMARK    7  A    between atoms: _14  and  _17
REMARK    8  A    between atoms: _17  and  _18
REMARK    9  A    between atoms: _23  and  _25
REMARK   10  A    between atoms: _25  and  _26
REMARK   11  A    between atoms: _25  and  _28
REMARK   12  A    between atoms: _31  and  _33
REMARK   13  A    between atoms: _33  and  _34
REMARK   14  A    between atoms: _37  and  _38
REMARK   15  A    between atoms: _43  and  _45
REMARK   16  A    between atoms: _45  and  _46
REMARK   17  A    between atoms: _45  and  _48
REMARK   18  A    between atoms: _48  and  _49
REMARK   19  A    between atoms: _54  and  _56
REMARK   20  A    between atoms: _56  and  _57
REMARK   21  A    between atoms: _59  and  _61
REMARK   22  A    between atoms: _61  and  _62
REMARK   23  A    between atoms: _61  and  _64
REMARK   24  A    between atoms: _64  and  _65
REMARK   25  A    between atoms: _75  and  _77
REMARK   26  A    between atoms: _77  and  _78
REMARK   27  A    between atoms: _77  and  _80
REMARK   28  A    between atoms: _80  and  _81
REMARK   29  A    between atoms: _81  and  _82
REMARK   30  A    between atoms: _82  and  _83
REMARK   31  A    between atoms: _83  and  _84
REMARK   32  A    between atoms: _88  and  _90
REMARK   33  A    between atoms: _90  and  _91
REMARK   34  A    between atoms: _90  and  _93
REMARK   35  A    between atoms: _96  and  _98
REMARK   36  A    between atoms: _98  and  _99
REMARK   37  A    between atoms: _98  and  _101
REMARK   38  A    between atoms: _104  and  _106
REMARK   39  A    between atoms: _106  and  _107
REMARK   40  A    between atoms: _106  and  _109
REMARK   41  A    between atoms: _109  and  _110
REMARK   42  A    between atoms: _113  and  _115
REMARK   43  A    between atoms: _115  and  _116
REMARK   44  A    between atoms: _118  and  _120
REMARK   45  A    between atoms: _120  and  _121
REMARK   46  A    between atoms: _120  and  _123
REMARK   47  A    between atoms: _123  and  _124
REMARK   48  A    between atoms: _124  and  _125
REMARK   49  A    between atoms: _125  and  _126
REMARK   50  A    between atoms: _135  and  _137
REMARK   51  A    between atoms: _137  and  _138
REMARK   52  A    between atoms: _137  and  _140
REMARK   53  A    between atoms: _140  and  _141
REMARK   54  A    between atoms: _146  and  _148
REMARK   55  A    between atoms: _148  and  _149
REMARK   56  A    between atoms: _148  and  _151
REMARK   57  A    between atoms: _151  and  _152
REMARK   58  A    between atoms: _152  and  _153
REMARK   59  A    between atoms: _153  and  _154
REMARK   60  A    between atoms: _154  and  _155
REMARK   61  A    between atoms: _159  and  _161
REMARK   62  A    between atoms: _161  and  _162
REMARK   63  A    between atoms: _161  and  _164
REMARK   64  A    between atoms: _164  and  _165
REMARK   65  A    between atoms: _171  and  _173
REMARK   66  A    between atoms: _173  and  _174
REMARK   67  A    between atoms: _173  and  _176
REMARK   68  A    between atoms: _176  and  _177
REMARK   69  A    between atoms: _182  and  _184
REMARK   70  A    between atoms: _184  and  _185
REMARK   71  A    between atoms: _184  and  _187
REMARK   72  A    between atoms: _187  and  _188
REMARK   73  A    between atoms: _193  and  _195
REMARK   74  A    between atoms: _195  and  _196
REMARK   75  A    between atoms: _198  and  _200
REMARK   76  A    between atoms: _200  and  _201
REMARK   77  A    between atoms: _200  and  _203
REMARK   78  A    between atoms: _203  and  _204
REMARK   79  A    between atoms: _204  and  _205
REMARK   80  A    between atoms: _205  and  _206
REMARK   81  A    between atoms: _215  and  _217
REMARK   82  A    between atoms: _217  and  _218
REMARK   83  A    between atoms: _217  and  _220
REMARK   84  A    between atoms: _220  and  _221
REMARK   85  A    between atoms: _225  and  _226
REMARK   86  A    between atoms: _231  and  _233
REMARK   87  A    between atoms: _233  and  _234
REMARK   88  A    between atoms: _237  and  _239
REMARK   89  A    between atoms: _239  and  _240
REMARK   90  A    between atoms: _239  and  _242
REMARK   91  A    between atoms: _242  and  _243
REMARK   92  A    between atoms: _253  and  _255
REMARK   93  A    between atoms: _255  and  _256
REMARK   94  A    between atoms: _255  and  _258
REMARK   95  A    between atoms: _258  and  _259
REMARK   96  A    between atoms: _259  and  _260
REMARK   97  A    between atoms: _263  and  _265
REMARK   98  A    between atoms: _265  and  _266
REMARK   99  A    between atoms: _265  and  _268
REMARK  100  A    between atoms: _268  and  _269
REMARK  101  A    between atoms: _271  and  _273
REMARK  102  A    between atoms: _273  and  _274
REMARK  103  A    between atoms: _273  and  _276
REMARK  104  A    between atoms: _276  and  _277
REMARK  105  A    between atoms: _280  and  _282
REMARK  106  A    between atoms: _282  and  _283
REMARK  107  A    between atoms: _286  and  _288
REMARK  108  A    between atoms: _288  and  _289
REMARK  109  A    between atoms: _288  and  _291
REMARK  110  A    between atoms: _291  and  _292
REMARK  111  A    between atoms: _295  and  _297
REMARK  112  A    between atoms: _297  and  _298
REMARK  113  A    between atoms: _297  and  _300
REMARK  114  A    between atoms: _300  and  _301
REMARK  115  A    between atoms: _301  and  _302
REMARK  116  A    between atoms: _307  and  _309
REMARK  117  A    between atoms: _309  and  _310
REMARK  118  A    between atoms: _313  and  _315
REMARK  119  A    between atoms: _315  and  _316
REMARK  120  A    between atoms: _315  and  _318
REMARK  121  A    between atoms: _318  and  _319
REMARK  122  A    between atoms: _321  and  _323
REMARK  123  A    between atoms: _323  and  _324
REMARK  124  A    between atoms: _326  and  _328
REMARK  125  A    between atoms: _328  and  _329
REMARK  126  A    between atoms: _328  and  _331
REMARK  127  A    between atoms: _331  and  _332
REMARK  128  A    between atoms: _332  and  _333
REMARK  129  A    between atoms: _338  and  _340
REMARK  130  A    between atoms: _340  and  _341
REMARK  131  A    between atoms: _344  and  _345
REMARK  132  A    between atoms: _350  and  _352
REMARK  133  A    between atoms: _352  and  _353
REMARK  134  A    between atoms: _352  and  _355
REMARK  135  A    between atoms: _355  and  _356
REMARK  136  A    between atoms: _361  and  _362
REMARK  137  A    between atoms: _364  and  _366
REMARK  138  A    between atoms: _366  and  _367
REMARK  139  A    between atoms: _366  and  _369
REMARK  140  A    between atoms: _369  and  _370
REMARK  141  A    between atoms: _376  and  _378
REMARK  142  A    between atoms: _378  and  _379
REMARK  143  A    between atoms: _381  and  _383
REMARK  144  A    between atoms: _383  and  _384
REMARK  145  A    between atoms: _383  and  _386
REMARK  146  A    between atoms: _386  and  _387
REMARK  147  A    between atoms: _387  and  _388
REMARK  148  A    between atoms: _393  and  _395
REMARK  149  A    between atoms: _395  and  _396
REMARK  150  A    between atoms: _399  and  _401
REMARK  151  A    between atoms: _401  and  _402
REMARK  152  A    between atoms: _404  and  _406
REMARK  153  A    between atoms: _406  and  _407
REMARK  154  A    between atoms: _406  and  _409
REMARK  155  A    between atoms: _409  and  _410
REMARK  156  A    between atoms: _420  and  _422
REMARK  157  A    between atoms: _422  and  _423
REMARK  158  A    between atoms: _422  and  _425
REMARK  159  A    between atoms: _425  and  _426
REMARK  160  A    between atoms: _432  and  _434
REMARK  161  A    between atoms: _434  and  _435
REMARK  162  A    between atoms: _434  and  _437
REMARK  163  A    between atoms: _440  and  _442
REMARK  164  A    between atoms: _442  and  _443
REMARK  165  A    between atoms: _446  and  _448
REMARK  166  A    between atoms: _448  and  _449
REMARK  167  A    between atoms: _448  and  _451
REMARK  168  A    between atoms: _451  and  _452
REMARK  169  A    between atoms: _452  and  _453
REMARK  170  A    between atoms: _456  and  _458
REMARK  171  A    between atoms: _458  and  _459
REMARK  172  A    between atoms: _458  and  _461
REMARK  173  A    between atoms: _461  and  _462
REMARK  174  A    between atoms: _472  and  _474
REMARK  175  A    between atoms: _474  and  _475
REMARK  176  A    between atoms: _474  and  _477
REMARK  177  A    between atoms: _477  and  _478
REMARK  178  A    between atoms: _478  and  _479
REMARK  179  A    between atoms: _479  and  _480
REMARK  180  A    between atoms: _480  and  _481
REMARK  181  A    between atoms: _485  and  _487
REMARK  182  A    between atoms: _487  and  _488
REMARK  183  A    between atoms: _487  and  _490
REMARK  184  A    between atoms: _490  and  _491
REMARK  185  A    between atoms: _497  and  _499
REMARK  186  A    between atoms: _499  and  _500
REMARK  187  A    between atoms: _499  and  _502
REMARK  188  A    between atoms: _502  and  _503
REMARK  189  A    between atoms: _509  and  _511
REMARK  190  A    between atoms: _511  and  _512
REMARK  191  A    between atoms: _511  and  _514
REMARK  192  A    between atoms: _514  and  _515
REMARK  193  A    between atoms: _515  and  _516
REMARK  194  A    between atoms: _521  and  _523
REMARK  195  A    between atoms: _523  and  _524
REMARK  196  A    between atoms: _527  and  _529
REMARK  197  A    between atoms: _529  and  _530
REMARK  198  A    between atoms: _529  and  _532
REMARK  199  A    between atoms: _532  and  _533
REMARK  200  A    between atoms: _535  and  _537
REMARK  201  A    between atoms: _537  and  _538
REMARK  202  A    between atoms: _540  and  _542
REMARK  203  A    between atoms: _542  and  _543
REMARK  204  A    between atoms: _542  and  _545
REMARK  205  A    between atoms: _545  and  _546
REMARK  206  A    between atoms: _546  and  _547
REMARK  207  A    between atoms: _553  and  _554
REMARK  208  A    between atoms: _559  and  _561
REMARK  209  A    between atoms: _561  and  _562
REMARK  210  A    between atoms: _561  and  _564
REMARK  211  A    between atoms: _564  and  _565
REMARK  212  A    between atoms: _570  and  _571
REMARK  213  A    between atoms: _573  and  _575
REMARK  214  A    between atoms: _575  and  _576
REMARK  215  A    between atoms: _575  and  _578
REMARK  216  A    between atoms: _578  and  _579
REMARK  217  A    between atoms: _579  and  _580
REMARK  218  A    between atoms: _580  and  _581
REMARK  219  A    between atoms: _590  and  _592
REMARK  220  A    between atoms: _592  and  _593
REMARK  221  A    between atoms: _592  and  _595
REMARK  222  A    between atoms: _595  and  _596
REMARK  223  A    between atoms: _601  and  _602
REMARK  224  A    between atoms: _604  and  _606
REMARK  225  A    between atoms: _606  and  _607
REMARK  226  A    between atoms: _606  and  _609
REMARK  227  A    between atoms: _609  and  _610
REMARK  228  A    between atoms: _610  and  _611
REMARK  229  A    between atoms: _614  and  _616
REMARK  230  A    between atoms: _616  and  _617
REMARK  231  A    between atoms: _616  and  _619
REMARK  232  A    between atoms: _619  and  _620
REMARK  233  A    between atoms: _620  and  _621
REMARK  234  A    between atoms: _621  and  _622
REMARK                            x       y       z     vdW  Elec       q    Type
REMARK                         _______ _______ _______ _____ _____    ______ ____
ROOT
ATOM      1  CA  GLU A   1      -3.304  13.571  -3.227  0.00  0.00    +0.134 C 
ENDROOT
BRANCH   1   2
ATOM      2  N   GLU A   1      -4.225  12.504  -3.661  0.00  0.00    -0.239 NA
ATOM      3  H   GLU A   1      -3.914  11.512  -3.619  0.00  0.00    +0.142 HD
ENDBRANCH   1   2
BRANCH   1   4
ATOM      4  C   GLU A   1      -2.882  14.452  -4.404  0.00  0.00    +0.224 C 
ATOM      5  O   GLU A   1      -2.734  15.665  -4.270  0.00  0.00    -0.287 OA
ENDBRANCH   1   4
BRANCH   1   6
ATOM      6  CB  GLU A   1      -2.048  12.999  -2.521  0.00  0.00    +0.037 C 
BRANCH   6   7
ATOM      7  CG  GLU A   1      -1.099  14.082  -1.957  0.00  0.00    +0.116 C 
BRANCH   7   8
ATOM      8  CD  GLU A   1      -1.721  14.926  -0.799  0.00  0.00    +0.365 C 
ATOM      9  OE2 GLU A   1      -1.074  15.886  -0.344  0.00  0.00    -0.246 OA
ATOM     10  OE1 GLU A   1      -2.852  14.627  -0.371  0.00  0.00    -0.246 OA
ENDBRANCH   7   8
ENDBRANCH   6   7
ENDBRANCH   1   6
TORSDOF 5
REMARK  Name = ../refined-set-2016/4f0c/4f0c_pocket.pdb
REMARK  234 active torsions:
REMARK  status: ('A' for Active; 'I' for Inactive)
REMARK    1  A    between atoms: _1  and  _3
REMARK    2  A    between atoms: _3  and  _4
REMARK    3  A    between atoms: _3  and  _6
REMARK    4  A    between atoms: _6  and  _7
REMARK    5  A    between atoms: _12  and  _14
REMARK    6  A    between atoms: _14  and  _15
REMARK    7  A    between atoms: _14  and  _17
REMARK    8  A    between atoms: _17  and  _18
REMARK    9  A    between atoms: _23  and  _25
REMARK   10  A    between atoms: _25  and  _26
REMARK   11  A    between atoms: _25  and  _28
REMARK   12  A    between atoms: _31  and  _33
REMARK   13  A    between atoms: _33  and  _34
REMARK   14  A    between atoms: _37  and  _38
REMARK   15  A    between atoms: _43  and  _45
REMARK   16  A    between atoms: _45  and  _46
REMARK   17  A    between atoms: _45  and  _48
REMARK   18  A    between atoms: _48  and  _49
REMARK   19  A    between atoms: _54  and  _56
REMARK   20  A    between atoms: _56  and  _57
REMARK   21  A    between atoms: _59  and  _61
REMARK   22  A    between atoms: _61  and  _62
REMARK   23  A    between atoms: _61  and  _64
REMARK   24  A    between atoms: _64  and  _65
REMARK   25  A    between atoms: _75  and  _77
REMARK   26  A    between atoms: _77  and  _78
REMARK   27  A    between atoms: _77  and  _80
REMARK   28  A    between atoms: _80  and  _81
REMARK   29  A    between atoms: _81  and  _82
REMARK   30  A    between atoms: _82  and  _83
REMARK   31  A    between atoms: _83  and  _84
REMARK   32  A    between atoms: _88  and  _90
REMARK   33  A    between atoms: _90  and  _91
REMARK   34  A    between atoms: _90  and  _93
REMARK   35  A    between atoms: _96  and  _98
REMARK   36  A    between atoms: _98  and  _99
REMARK   37  A    between atoms: _98  and  _101
REMARK   38  A    between atoms: _104  and  _106
REMARK   39  A    between atoms: _106  and  _107
REMARK   40  A    between atoms: _106  and  _109
REMARK   41  A    between atoms: _109  and  _110
REMARK   42  A    between atoms: _113  and  _115
REMARK   43  A    between atoms: _115  and  _116
REMARK   44  A    between atoms: _118  and  _120
REMARK   45  A    between atoms: _120  and  _121
REMARK   46  A    between atoms: _120  and  _123
REMARK   47  A    between atoms: _123  and  _124
REMARK   48  A    between atoms: _124  and  _125
REMARK   49  A    between atoms: _125  and  _126
REMARK   50  A    between atoms: _135  and  _137
REMARK   51  A    between atoms: _137  and  _138
REMARK   52  A    between atoms: _137  and  _140
REMARK   53  A    between atoms: _140  and  _141
REMARK   54  A    between atoms: _146  and  _148
REMARK   55  A    between atoms: _148  and  _149
REMARK   56  A    between atoms: _148  and  _151
REMARK   57  A    between atoms: _151  and  _152
REMARK   58  A    between atoms: _152  and  _153
REMARK   59  A    between atoms: _153  and  _154
REMARK   60  A    between atoms: _154  and  _155
REMARK   61  A    between atoms: _159  and  _161
REMARK   62  A    between atoms: _161  and  _162
REMARK   63  A    between atoms: _161  and  _164
REMARK   64  A    between atoms: _164  and  _165
REMARK   65  A    between atoms: _171  and  _173
REMARK   66  A    between atoms: _173  and  _174
REMARK   67  A    between atoms: _173  and  _176
REMARK   68  A    between atoms: _176  and  _177
REMARK   69  A    between atoms: _182  and  _184
REMARK   70  A    between atoms: _184  and  _185
REMARK   71  A    between atoms: _184  and  _187
REMARK   72  A    between atoms: _187  and  _188
REMARK   73  A    between atoms: _193  and  _195
REMARK   74  A    between atoms: _195  and  _196
REMARK   75  A    between atoms: _198  and  _200
REMARK   76  A    between atoms: _200  and  _201
REMARK   77  A    between atoms: _200  and  _203
REMARK   78  A    between atoms: _203  and  _204
REMARK   79  A    between atoms: _204  and  _205
REMARK   80  A    between atoms: _205  and  _206
REMARK   81  A    between atoms: _215  and  _217
REMARK   82  A    between atoms: _217  and  _218
REMARK   83  A    between atoms: _217  and  _220
REMARK   84  A    between atoms: _220  and  _221
REMARK   85  A    between atoms: _225  and  _226
REMARK   86  A    between atoms: _231  and  _233
REMARK   87  A    between atoms: _233  and  _234
REMARK   88  A    between atoms: _237  and  _239
REMARK   89  A    between atoms: _239  and  _240
REMARK   90  A    between atoms: _239  and  _242
REMARK   91  A    between atoms: _242  and  _243
REMARK   92  A    between atoms: _253  and  _255
REMARK   93  A    between atoms: _255  and  _256
REMARK   94  A    between atoms: _255  and  _258
REMARK   95  A    between atoms: _258  and  _259
REMARK   96  A    between atoms: _259  and  _260
REMARK   97  A    between atoms: _263  and  _265
REMARK   98  A    between atoms: _265  and  _266
REMARK   99  A    between atoms: _265  and  _268
REMARK  100  A    between atoms: _268  and  _269
REMARK  101  A    between atoms: _271  and  _273
REMARK  102  A    between atoms: _273  and  _274
REMARK  103  A    between atoms: _273  and  _276
REMARK  104  A    between atoms: _276  and  _277
REMARK  105  A    between atoms: _280  and  _282
REMARK  106  A    between atoms: _282  and  _283
REMARK  107  A    between atoms: _286  and  _288
REMARK  108  A    between atoms: _288  and  _289
REMARK  109  A    between atoms: _288  and  _291
REMARK  110  A    between atoms: _291  and  _292
REMARK  111  A    between atoms: _295  and  _297
REMARK  112  A    between atoms: _297  and  _298
REMARK  113  A    between atoms: _297  and  _300
REMARK  114  A    between atoms: _300  and  _301
REMARK  115  A    between atoms: _301  and  _302
REMARK  116  A    between atoms: _307  and  _309
REMARK  117  A    between atoms: _309  and  _310
REMARK  118  A    between atoms: _313  and  _315
REMARK  119  A    between atoms: _315  and  _316
REMARK  120  A    between atoms: _315  and  _318
REMARK  121  A    between atoms: _318  and  _319
REMARK  122  A    between atoms: _321  and  _323
REMARK  123  A    between atoms: _323  and  _324
REMARK  124  A    between atoms: _326  and  _328
REMARK  125  A    between atoms: _328  and  _329
REMARK  126  A    between atoms: _328  and  _331
REMARK  127  A    between atoms: _331  and  _332
REMARK  128  A    between atoms: _332  and  _333
REMARK  129  A    between atoms: _338  and  _340
REMARK  130  A    between atoms: _340  and  _341
REMARK  131  A    between atoms: _344  and  _345
REMARK  132  A    between atoms: _350  and  _352
REMARK  133  A    between atoms: _352  and  _353
REMARK  134  A    between atoms: _352  and  _355
REMARK  135  A    between atoms: _355  and  _356
REMARK  136  A    between atoms: _361  and  _362
REMARK  137  A    between atoms: _364  and  _366
REMARK  138  A    between atoms: _366  and  _367
REMARK  139  A    between atoms: _366  and  _369
REMARK  140  A    between atoms: _369  and  _370
REMARK  141  A    between atoms: _376  and  _378
REMARK  142  A    between atoms: _378  and  _379
REMARK  143  A    between atoms: _381  and  _383
REMARK  144  A    between atoms: _383  and  _384
REMARK  145  A    between atoms: _383  and  _386
REMARK  146  A    between atoms: _386  and  _387
REMARK  147  A    between atoms: _387  and  _388
REMARK  148  A    between atoms: _393  and  _395
REMARK  149  A    between atoms: _395  and  _396
REMARK  150  A    between atoms: _399  and  _401
REMARK  151  A    between atoms: _401  and  _402
REMARK  152  A    between atoms: _404  and  _406
REMARK  153  A    between atoms: _406  and  _407
REMARK  154  A    between atoms: _406  and  _409
REMARK  155  A    between atoms: _409  and  _410
REMARK  156  A    between atoms: _420  and  _422
REMARK  157  A    between atoms: _422  and  _423
REMARK  158  A    between atoms: _422  and  _425
REMARK  159  A    between atoms: _425  and  _426
REMARK  160  A    between atoms: _432  and  _434
REMARK  161  A    between atoms: _434  and  _435
REMARK  162  A    between atoms: _434  and  _437
REMARK  163  A    between atoms: _440  and  _442
REMARK  164  A    between atoms: _442  and  _443
REMARK  165  A    between atoms: _446  and  _448
REMARK  166  A    between atoms: _448  and  _449
REMARK  167  A    between atoms: _448  and  _451
REMARK  168  A    between atoms: _451  and  _452
REMARK  169  A    between atoms: _452  and  _453
REMARK  170  A    between atoms: _456  and  _458
REMARK  171  A    between atoms: _458  and  _459
REMARK  172  A    between atoms: _458  and  _461
REMARK  173  A    between atoms: _461  and  _462
REMARK  174  A    between atoms: _472  and  _474
REMARK  175  A    between atoms: _474  and  _475
REMARK  176  A    between atoms: _474  and  _477
REMARK  177  A    between atoms: _477  and  _478
REMARK  178  A    between atoms: _478  and  _479
REMARK  179  A    between atoms: _479  and  _480
REMARK  180  A    between atoms: _480  and  _481
REMARK  181  A    between atoms: _485  and  _487
REMARK  182  A    between atoms: _487  and  _488
REMARK  183  A    between atoms: _487  and  _490
REMARK  184  A    between atoms: _490  and  _491
REMARK  185  A    between atoms: _497  and  _499
REMARK  186  A    between atoms: _499  and  _500
REMARK  187  A    between atoms: _499  and  _502
REMARK  188  A    between atoms: _502  and  _503
REMARK  189  A    between atoms: _509  and  _511
REMARK  190  A    between atoms: _511  and  _512
REMARK  191  A    between atoms: _511  and  _514
REMARK  192  A    between atoms: _514  and  _515
REMARK  193  A    between atoms: _515  and  _516
REMARK  194  A    between atoms: _521  and  _523
REMARK  195  A    between atoms: _523  and  _524
REMARK  196  A    between atoms: _527  and  _529
REMARK  197  A    between atoms: _529  and  _530
REMARK  198  A    between atoms: _529  and  _532
REMARK  199  A    between atoms: _532  and  _533
REMARK  200  A    between atoms: _535  and  _537
REMARK  201  A    between atoms: _537  and  _538
REMARK  202  A    between atoms: _540  and  _542
REMARK  203  A    between atoms: _542  and  _543
REMARK  204  A    between atoms: _542  and  _545
REMARK  205  A    between atoms: _545  and  _546
REMARK  206  A    between atoms: _546  and  _547
REMARK  207  A    between atoms: _553  and  _554
REMARK  208  A    between atoms: _559  and  _561
REMARK  209  A    between atoms: _561  and  _562
REMARK  210  A    between atoms: _561  and  _564
REMARK  211  A    between atoms: _564  and  _565
REMARK  212  A    between atoms: _570  and  _571
REMARK  213  A    between atoms: _573  and  _575
REMARK  214  A    between atoms: _575  and  _576
REMARK  215  A    between atoms: _575  and  _578
REMARK  216  A    between atoms: _578  and  _579
REMARK  217  A    between atoms: _579  and  _580
REMARK  218  A    between atoms: _580  and  _581
REMARK  219  A    between atoms: _590  and  _592
REMARK  220  A    between atoms: _592  and  _593
REMARK  221  A    between atoms: _592  and  _595
REMARK  222  A    between atoms: _595  and  _596
REMARK  223  A    between atoms: _601  and  _602
REMARK  224  A    between atoms: _604  and  _606
REMARK  225  A    between atoms: _606  and  _607
REMARK  226  A    between atoms: _606  and  _609
REMARK  227  A    between atoms: _609  and  _610
REMARK  228  A    between atoms: _610  and  _611
REMARK  229  A    between atoms: _614  and  _616
REMARK  230  A    between atoms: _616  and  _617
REMARK  231  A    between atoms: _616  and  _619
REMARK  232  A    between atoms: _619  and  _620
REMARK  233  A    between atoms: _620  and  _621
REMARK  234  A    between atoms: _621  and  _622
REMARK                            x       y       z     vdW  Elec       q    Type
REMARK                         _______ _______ _______ _____ _____    ______ ____
ROOT
ATOM      1  NE  ARG A   1      -3.525  17.686   0.054  0.00  0.00    -0.265 N 
ATOM      2  CZ  ARG A   1      -2.833  18.808   0.247  0.00  0.00    +0.342 C 
ATOM      3  NH2 ARG A   1      -3.455  19.960   0.559  0.00  0.00    -0.292 N 
ATOM      4 HH21 ARG A   1      -2.900  20.827   0.706  0.00  0.00    +0.255 HD
ATOM      5 HH22 ARG A   1      -4.491  19.983   0.653  0.00  0.00    +0.255 HD
ATOM      6  NH1 ARG A   1      -1.516  18.778   0.118  0.00  0.00    -0.292 N 
ATOM      7 HH11 ARG A   1      -0.959  19.644   0.265  0.00  0.00    +0.255 HD
ATOM      8 HH12 ARG A   1      -1.038  17.888  -0.130  0.00  0.00    +0.255 HD
ATOM      9  HE  ARG A   1      -2.994  16.825  -0.189  0.00  0.00    +0.259 HD
ENDROOT
BRANCH   1  10
ATOM     10  CD  ARG A   1      -4.978  17.582   0.161  0.00  0.00    +0.174 C 
BRANCH  10  11
ATOM     11  CG  ARG A   1      -5.676  18.028  -1.157  0.00  0.00    +0.045 C 
BRANCH  11  12
ATOM     12  CB  ARG A   1      -5.338  17.097  -2.358  0.00  0.00    +0.029 C 
BRANCH  12  13
ATOM     13  CA  ARG A   1      -5.648  17.741  -3.716  0.00  0.00    +0.133 C 
BRANCH  13  14
ATOM     14  N   ARG A   1      -5.636  16.777  -4.820  0.00  0.00    -0.239 NA
ATOM     15  H   ARG A   1      -5.314  15.801  -4.658  0.00  0.00    +0.142 HD
ENDBRANCH  13  14
BRANCH  13  16
ATOM     16  C   ARG A   1      -4.647  18.866  -4.006  0.00  0.00    +0.224 C 
ATOM     17  O   ARG A   1      -4.950  20.068  -3.826  0.00  0.00    -0.287 OA
ENDBRANCH  13  16
ENDBRANCH  12  13
ENDBRANCH  11  12
ENDBRANCH  10  11
ENDBRANCH   1  10
TORSDOF 6
REMARK  Name = ../refined-set-2016/4f0c/4f0c_pocket.pdb
REMARK  234 active torsions:
REMARK  status: ('A' for Active; 'I' for Inactive)
REMARK    1  A    between atoms: _1  and  _3
REMARK    2  A    between atoms: _3  and  _4
REMARK    3  A    between atoms: _3  and  _6
REMARK    4  A    between atoms: _6  and  _7
REMARK    5  A    between atoms: _12  and  _14
REMARK    6  A    between atoms: _14  and  _15
REMARK    7  A    between atoms: _14  and  _17
REMARK    8  A    between atoms: _17  and  _18
REMARK    9  A    between atoms: _23  and  _25
REMARK   10  A    between atoms: _25  and  _26
REMARK   11  A    between atoms: _25  and  _28
REMARK   12  A    between atoms: _31  and  _33
REMARK   13  A    between atoms: _33  and  _34
REMARK   14  A    between atoms: _37  and  _38
REMARK   15  A    between atoms: _43  and  _45
REMARK   16  A    between atoms: _45  and  _46
REMARK   17  A    between atoms: _45  and  _48
REMARK   18  A    between atoms: _48  and  _49
REMARK   19  A    between atoms: _54  and  _56
REMARK   20  A    between atoms: _56  and  _57
REMARK   21  A    between atoms: _59  and  _61
REMARK   22  A    between atoms: _61  and  _62
REMARK   23  A    between atoms: _61  and  _64
REMARK   24  A    between atoms: _64  and  _65
REMARK   25  A    between atoms: _75  and  _77
REMARK   26  A    between atoms: _77  and  _78
REMARK   27  A    between atoms: _77  and  _80
REMARK   28  A    between atoms: _80  and  _81
REMARK   29  A    between atoms: _81  and  _82
REMARK   30  A    between atoms: _82  and  _83
REMARK   31  A    between atoms: _83  and  _84
REMARK   32  A    between atoms: _88  and  _90
REMARK   33  A    between atoms: _90  and  _91
REMARK   34  A    between atoms: _90  and  _93
REMARK   35  A    between atoms: _96  and  _98
REMARK   36  A    between atoms: _98  and  _99
REMARK   37  A    between atoms: _98  and  _101
REMARK   38  A    between atoms: _104  and  _106
REMARK   39  A    between atoms: _106  and  _107
REMARK   40  A    between atoms: _106  and  _109
REMARK   41  A    between atoms: _109  and  _110
REMARK   42  A    between atoms: _113  and  _115
REMARK   43  A    between atoms: _115  and  _116
REMARK   44  A    between atoms: _118  and  _120
REMARK   45  A    between atoms: _120  and  _121
REMARK   46  A    between atoms: _120  and  _123
REMARK   47  A    between atoms: _123  and  _124
REMARK   48  A    between atoms: _124  and  _125
REMARK   49  A    between atoms: _125  and  _126
REMARK   50  A    between atoms: _135  and  _137
REMARK   51  A    between atoms: _137  and  _138
REMARK   52  A    between atoms: _137  and  _140
REMARK   53  A    between atoms: _140  and  _141
REMARK   54  A    between atoms: _146  and  _148
REMARK   55  A    between atoms: _148  and  _149
REMARK   56  A    between atoms: _148  and  _151
REMARK   57  A    between atoms: _151  and  _152
REMARK   58  A    between atoms: _152  and  _153
REMARK   59  A    between atoms: _153  and  _154
REMARK   60  A    between atoms: _154  and  _155
REMARK   61  A    between atoms: _159  and  _161
REMARK   62  A    between atoms: _161  and  _162
REMARK   63  A    between atoms: _161  and  _164
REMARK   64  A    between atoms: _164  and  _165
REMARK   65  A    between atoms: _171  and  _173
REMARK   66  A    between atoms: _173  and  _174
REMARK   67  A    between atoms: _173  and  _176
REMARK   68  A    between atoms: _176  and  _177
REMARK   69  A    between atoms: _182  and  _184
REMARK   70  A    between atoms: _184  and  _185
REMARK   71  A    between atoms: _184  and  _187
REMARK   72  A    between atoms: _187  and  _188
REMARK   73  A    between atoms: _193  and  _195
REMARK   74  A    between atoms: _195  and  _196
REMARK   75  A    between atoms: _198  and  _200
REMARK   76  A    between atoms: _200  and  _201
REMARK   77  A    between atoms: _200  and  _203
REMARK   78  A    between atoms: _203  and  _204
REMARK   79  A    between atoms: _204  and  _205
REMARK   80  A    between atoms: _205  and  _206
REMARK   81  A    between atoms: _215  and  _217
REMARK   82  A    between atoms: _217  and  _218
REMARK   83  A    between atoms: _217  and  _220
REMARK   84  A    between atoms: _220  and  _221
REMARK   85  A    between atoms: _225  and  _226
REMARK   86  A    between atoms: _231  and  _233
REMARK   87  A    between atoms: _233  and  _234
REMARK   88  A    between atoms: _237  and  _239
REMARK   89  A    between atoms: _239  and  _240
REMARK   90  A    between atoms: _239  and  _242
REMARK   91  A    between atoms: _242  and  _243
REMARK   92  A    between atoms: _253  and  _255
REMARK   93  A    between atoms: _255  and  _256
REMARK   94  A    between atoms: _255  and  _258
REMARK   95  A    between atoms: _258  and  _259
REMARK   96  A    between atoms: _259  and  _260
REMARK   97  A    between atoms: _263  and  _265
REMARK   98  A    between atoms: _265  and  _266
REMARK   99  A    between atoms: _265  and  _268
REMARK  100  A    between atoms: _268  and  _269
REMARK  101  A    between atoms: _271  and  _273
REMARK  102  A    between atoms: _273  and  _274
REMARK  103  A    between atoms: _273  and  _276
REMARK  104  A    between atoms: _276  and  _277
REMARK  105  A    between atoms: _280  and  _282
REMARK  106  A    between atoms: _282  and  _283
REMARK  107  A    between atoms: _286  and  _288
REMARK  108  A    between atoms: _288  and  _289
REMARK  109  A    between atoms: _288  and  _291
REMARK  110  A    between atoms: _291  and  _292
REMARK  111  A    between atoms: _295  and  _297
REMARK  112  A    between atoms: _297  and  _298
REMARK  113  A    between atoms: _297  and  _300
REMARK  114  A    between atoms: _300  and  _301
REMARK  115  A    between atoms: _301  and  _302
REMARK  116  A    between atoms: _307  and  _309
REMARK  117  A    between atoms: _309  and  _310
REMARK  118  A    between atoms: _313  and  _315
REMARK  119  A    between atoms: _315  and  _316
REMARK  120  A    between atoms: _315  and  _318
REMARK  121  A    between atoms: _318  and  _319
REMARK  122  A    between atoms: _321  and  _323
REMARK  123  A    between atoms: _323  and  _324
REMARK  124  A    between atoms: _326  and  _328
REMARK  125  A    between atoms: _328  and  _329
REMARK  126  A    between atoms: _328  and  _331
REMARK  127  A    between atoms: _331  and  _332
REMARK  128  A    between atoms: _332  and  _333
REMARK  129  A    between atoms: _338  and  _340
REMARK  130  A    between atoms: _340  and  _341
REMARK  131  A    between atoms: _344  and  _345
REMARK  132  A    between atoms: _350  and  _352
REMARK  133  A    between atoms: _352  and  _353
REMARK  134  A    between atoms: _352  and  _355
REMARK  135  A    between atoms: _355  and  _356
REMARK  136  A    between atoms: _361  and  _362
REMARK  137  A    between atoms: _364  and  _366
REMARK  138  A    between atoms: _366  and  _367
REMARK  139  A    between atoms: _366  and  _369
REMARK  140  A    between atoms: _369  and  _370
REMARK  141  A    between atoms: _376  and  _378
REMARK  142  A    between atoms: _378  and  _379
REMARK  143  A    between atoms: _381  and  _383
REMARK  144  A    between atoms: _383  and  _384
REMARK  145  A    between atoms: _383  and  _386
REMARK  146  A    between atoms: _386  and  _387
REMARK  147  A    between atoms: _387  and  _388
REMARK  148  A    between atoms: _393  and  _395
REMARK  149  A    between atoms: _395  and  _396
REMARK  150  A    between atoms: _399  and  _401
REMARK  151  A    between atoms: _401  and  _402
REMARK  152  A    between atoms: _404  and  _406
REMARK  153  A    between atoms: _406  and  _407
REMARK  154  A    between atoms: _406  and  _409
REMARK  155  A    between atoms: _409  and  _410
REMARK  156  A    between atoms: _420  and  _422
REMARK  157  A    between atoms: _422  and  _423
REMARK  158  A    between atoms: _422  and  _425
REMARK  159  A    between atoms: _425  and  _426
REMARK  160  A    between atoms: _432  and  _434
REMARK  161  A    between atoms: _434  and  _435
REMARK  162  A    between atoms: _434  and  _437
REMARK  163  A    between atoms: _440  and  _442
REMARK  164  A    between atoms: _442  and  _443
REMARK  165  A    between atoms: _446  and  _448
REMARK  166  A    between atoms: _448  and  _449
REMARK  167  A    between atoms: _448  and  _451
REMARK  168  A    between atoms: _451  and  _452
REMARK  169  A    between atoms: _452  and  _453
REMARK  170  A    between atoms: _456  and  _458
REMARK  171  A    between atoms: _458  and  _459
REMARK  172  A    between atoms: _458  and  _461
REMARK  173  A    between atoms: _461  and  _462
REMARK  174  A    between atoms: _472  and  _474
REMARK  175  A    between atoms: _474  and  _475
REMARK  176  A    between atoms: _474  and  _477
REMARK  177  A    between atoms: _477  and  _478
REMARK  178  A    between atoms: _478  and  _479
REMARK  179  A    between atoms: _479  and  _480
REMARK  180  A    between atoms: _480  and  _481
REMARK  181  A    between atoms: _485  and  _487
REMARK  182  A    between atoms: _487  and  _488
REMARK  183  A    between atoms: _487  and  _490
REMARK  184  A    between atoms: _490  and  _491
REMARK  185  A    between atoms: _497  and  _499
REMARK  186  A    between atoms: _499  and  _500
REMARK  187  A    between atoms: _499  and  _502
REMARK  188  A    between atoms: _502  and  _503
REMARK  189  A    between atoms: _509  and  _511
REMARK  190  A    between atoms: _511  and  _512
REMARK  191  A    between atoms: _511  and  _514
REMARK  192  A    between atoms: _514  and  _515
REMARK  193  A    between atoms: _515  and  _516
REMARK  194  A    between atoms: _521  and  _523
REMARK  195  A    between atoms: _523  and  _524
REMARK  196  A    between atoms: _527  and  _529
REMARK  197  A    between atoms: _529  and  _530
REMARK  198  A    between atoms: _529  and  _532
REMARK  199  A    between atoms: _532  and  _533
REMARK  200  A    between atoms: _535  and  _537
REMARK  201  A    between atoms: _537  and  _538
REMARK  202  A    between atoms: _540  and  _542
REMARK  203  A    between atoms: _542  and  _543
REMARK  204  A    between atoms: _542  and  _545
REMARK  205  A    between atoms: _545  and  _546
REMARK  206  A    between atoms: _546  and  _547
REMARK  207  A    between atoms: _553  and  _554
REMARK  208  A    between atoms: _559  and  _561
REMARK  209  A    between atoms: _561  and  _562
REMARK  210  A    between atoms: _561  and  _564
REMARK  211  A    between atoms: _564  and  _565
REMARK  212  A    between atoms: _570  and  _571
REMARK  213  A    between atoms: _573  and  _575
REMARK  214  A    between atoms: _575  and  _576
REMARK  215  A    between atoms: _575  and  _578
REMARK  216  A    between atoms: _578  and  _579
REMARK  217  A    between atoms: _579  and  _580
REMARK  218  A    between atoms: _580  and  _581
REMARK  219  A    between atoms: _590  and  _592
REMARK  220  A    between atoms: _592  and  _593
REMARK  221  A    between atoms: _592  and  _595
REMARK  222  A    between atoms: _595  and  _596
REMARK  223  A    between atoms: _601  and  _602
REMARK  224  A    between atoms: _604  and  _606
REMARK  225  A    between atoms: _606  and  _607
REMARK  226  A    between atoms: _606  and  _609
REMARK  227  A    between atoms: _609  and  _610
REMARK  228  A    between atoms: _610  and  _611
REMARK  229  A    between atoms: _614  and  _616
REMARK  230  A    between atoms: _616  and  _617
REMARK  231  A    between atoms: _616  and  _619
REMARK  232  A    between atoms: _619  and  _620
REMARK  233  A    between atoms: _620  and  _621
REMARK  234  A    between atoms: _621  and  _622
REMARK                            x       y       z     vdW  Elec       q    Type
REMARK                         _______ _______ _______ _____ _____    ______ ____
ROOT
ATOM      1  O   HOH     1      12.623  16.138  11.081  0.00  0.00    +0.000 OA
ENDROOT
TORSDOF 0
REMARK  Name = ../refined-set-2016/4f0c/4f0c_pocket.pdb
REMARK  234 active torsions:
REMARK  status: ('A' for Active; 'I' for Inactive)
REMARK    1  A    between atoms: _1  and  _3
REMARK    2  A    between atoms: _3  and  _4
REMARK    3  A    between atoms: _3  and  _6
REMARK    4  A    between atoms: _6  and  _7
REMARK    5  A    between atoms: _12  and  _14
REMARK    6  A    between atoms: _14  and  _15
REMARK    7  A    between atoms: _14  and  _17
REMARK    8  A    between atoms: _17  and  _18
REMARK    9  A    between atoms: _23  and  _25
REMARK   10  A    between atoms: _25  and  _26
REMARK   11  A    between atoms: _25  and  _28
REMARK   12  A    between atoms: _31  and  _33
REMARK   13  A    between atoms: _33  and  _34
REMARK   14  A    between atoms: _37  and  _38
REMARK   15  A    between atoms: _43  and  _45
REMARK   16  A    between atoms: _45  and  _46
REMARK   17  A    between atoms: _45  and  _48
REMARK   18  A    between atoms: _48  and  _49
REMARK   19  A    between atoms: _54  and  _56
REMARK   20  A    between atoms: _56  and  _57
REMARK   21  A    between atoms: _59  and  _61
REMARK   22  A    between atoms: _61  and  _62
REMARK   23  A    between atoms: _61  and  _64
REMARK   24  A    between atoms: _64  and  _65
REMARK   25  A    between atoms: _75  and  _77
REMARK   26  A    between atoms: _77  and  _78
REMARK   27  A    between atoms: _77  and  _80
REMARK   28  A    between atoms: _80  and  _81
REMARK   29  A    between atoms: _81  and  _82
REMARK   30  A    between atoms: _82  and  _83
REMARK   31  A    between atoms: _83  and  _84
REMARK   32  A    between atoms: _88  and  _90
REMARK   33  A    between atoms: _90  and  _91
REMARK   34  A    between atoms: _90  and  _93
REMARK   35  A    between atoms: _96  and  _98
REMARK   36  A    between atoms: _98  and  _99
REMARK   37  A    between atoms: _98  and  _101
REMARK   38  A    between atoms: _104  and  _106
REMARK   39  A    between atoms: _106  and  _107
REMARK   40  A    between atoms: _106  and  _109
REMARK   41  A    between atoms: _109  and  _110
REMARK   42  A    between atoms: _113  and  _115
REMARK   43  A    between atoms: _115  and  _116
REMARK   44  A    between atoms: _118  and  _120
REMARK   45  A    between atoms: _120  and  _121
REMARK   46  A    between atoms: _120  and  _123
REMARK   47  A    between atoms: _123  and  _124
REMARK   48  A    between atoms: _124  and  _125
REMARK   49  A    between atoms: _125  and  _126
REMARK   50  A    between atoms: _135  and  _137
REMARK   51  A    between atoms: _137  and  _138
REMARK   52  A    between atoms: _137  and  _140
REMARK   53  A    between atoms: _140  and  _141
REMARK   54  A    between atoms: _146  and  _148
REMARK   55  A    between atoms: _148  and  _149
REMARK   56  A    between atoms: _148  and  _151
REMARK   57  A    between atoms: _151  and  _152
REMARK   58  A    between atoms: _152  and  _153
REMARK   59  A    between atoms: _153  and  _154
REMARK   60  A    between atoms: _154  and  _155
REMARK   61  A    between atoms: _159  and  _161
REMARK   62  A    between atoms: _161  and  _162
REMARK   63  A    between atoms: _161  and  _164
REMARK   64  A    between atoms: _164  and  _165
REMARK   65  A    between atoms: _171  and  _173
REMARK   66  A    between atoms: _173  and  _174
REMARK   67  A    between atoms: _173  and  _176
REMARK   68  A    between atoms: _176  and  _177
REMARK   69  A    between atoms: _182  and  _184
REMARK   70  A    between atoms: _184  and  _185
REMARK   71  A    between atoms: _184  and  _187
REMARK   72  A    between atoms: _187  and  _188
REMARK   73  A    between atoms: _193  and  _195
REMARK   74  A    between atoms: _195  and  _196
REMARK   75  A    between atoms: _198  and  _200
REMARK   76  A    between atoms: _200  and  _201
REMARK   77  A    between atoms: _200  and  _203
REMARK   78  A    between atoms: _203  and  _204
REMARK   79  A    between atoms: _204  and  _205
REMARK   80  A    between atoms: _205  and  _206
REMARK   81  A    between atoms: _215  and  _217
REMARK   82  A    between atoms: _217  and  _218
REMARK   83  A    between atoms: _217  and  _220
REMARK   84  A    between atoms: _220  and  _221
REMARK   85  A    between atoms: _225  and  _226
REMARK   86  A    between atoms: _231  and  _233
REMARK   87  A    between atoms: _233  and  _234
REMARK   88  A    between atoms: _237  and  _239
REMARK   89  A    between atoms: _239  and  _240
REMARK   90  A    between atoms: _239  and  _242
REMARK   91  A    between atoms: _242  and  _243
REMARK   92  A    between atoms: _253  and  _255
REMARK   93  A    between atoms: _255  and  _256
REMARK   94  A    between atoms: _255  and  _258
REMARK   95  A    between atoms: _258  and  _259
REMARK   96  A    between atoms: _259  and  _260
REMARK   97  A    between atoms: _263  and  _265
REMARK   98  A    between atoms: _265  and  _266
REMARK   99  A    between atoms: _265  and  _268
REMARK  100  A    between atoms: _268  and  _269
REMARK  101  A    between atoms: _271  and  _273
REMARK  102  A    between atoms: _273  and  _274
REMARK  103  A    between atoms: _273  and  _276
REMARK  104  A    between atoms: _276  and  _277
REMARK  105  A    between atoms: _280  and  _282
REMARK  106  A    between atoms: _282  and  _283
REMARK  107  A    between atoms: _286  and  _288
REMARK  108  A    between atoms: _288  and  _289
REMARK  109  A    between atoms: _288  and  _291
REMARK  110  A    between atoms: _291  and  _292
REMARK  111  A    between atoms: _295  and  _297
REMARK  112  A    between atoms: _297  and  _298
REMARK  113  A    between atoms: _297  and  _300
REMARK  114  A    between atoms: _300  and  _301
REMARK  115  A    between atoms: _301  and  _302
REMARK  116  A    between atoms: _307  and  _309
REMARK  117  A    between atoms: _309  and  _310
REMARK  118  A    between atoms: _313  and  _315
REMARK  119  A    between atoms: _315  and  _316
REMARK  120  A    between atoms: _315  and  _318
REMARK  121  A    between atoms: _318  and  _319
REMARK  122  A    between atoms: _321  and  _323
REMARK  123  A    between atoms: _323  and  _324
REMARK  124  A    between atoms: _326  and  _328
REMARK  125  A    between atoms: _328  and  _329
REMARK  126  A    between atoms: _328  and  _331
REMARK  127  A    between atoms: _331  and  _332
REMARK  128  A    between atoms: _332  and  _333
REMARK  129  A    between atoms: _338  and  _340
REMARK  130  A    between atoms: _340  and  _341
REMARK  131  A    between atoms: _344  and  _345
REMARK  132  A    between atoms: _350  and  _352
REMARK  133  A    between atoms: _352  and  _353
REMARK  134  A    between atoms: _352  and  _355
REMARK  135  A    between atoms: _355  and  _356
REMARK  136  A    between atoms: _361  and  _362
REMARK  137  A    between atoms: _364  and  _366
REMARK  138  A    between atoms: _366  and  _367
REMARK  139  A    between atoms: _366  and  _369
REMARK  140  A    between atoms: _369  and  _370
REMARK  141  A    between atoms: _376  and  _378
REMARK  142  A    between atoms: _378  and  _379
REMARK  143  A    between atoms: _381  and  _383
REMARK  144  A    between atoms: _383  and  _384
REMARK  145  A    between atoms: _383  and  _386
REMARK  146  A    between atoms: _386  and  _387
REMARK  147  A    between atoms: _387  and  _388
REMARK  148  A    between atoms: _393  and  _395
REMARK  149  A    between atoms: _395  and  _396
REMARK  150  A    between atoms: _399  and  _401
REMARK  151  A    between atoms: _401  and  _402
REMARK  152  A    between atoms: _404  and  _406
REMARK  153  A    between atoms: _406  and  _407
REMARK  154  A    between atoms: _406  and  _409
REMARK  155  A    between atoms: _409  and  _410
REMARK  156  A    between atoms: _420  and  _422
REMARK  157  A    between atoms: _422  and  _423
REMARK  158  A    between atoms: _422  and  _425
REMARK  159  A    between atoms: _425  and  _426
REMARK  160  A    between atoms: _432  and  _434
REMARK  161  A    between atoms: _434  and  _435
REMARK  162  A    between atoms: _434  and  _437
REMARK  163  A    between atoms: _440  and  _442
REMARK  164  A    between atoms: _442  and  _443
REMARK  165  A    between atoms: _446  and  _448
REMARK  166  A    between atoms: _448  and  _449
REMARK  167  A    between atoms: _448  and  _451
REMARK  168  A    between atoms: _451  and  _452
REMARK  169  A    between atoms: _452  and  _453
REMARK  170  A    between atoms: _456  and  _458
REMARK  171  A    between atoms: _458  and  _459
REMARK  172  A    between atoms: _458  and  _461
REMARK  173  A    between atoms: _461  and  _462
REMARK  174  A    between atoms: _472  and  _474
REMARK  175  A    between atoms: _474  and  _475
REMARK  176  A    between atoms: _474  and  _477
REMARK  177  A    between atoms: _477  and  _478
REMARK  178  A    between atoms: _478  and  _479
REMARK  179  A    between atoms: _479  and  _480
REMARK  180  A    between atoms: _480  and  _481
REMARK  181  A    between atoms: _485  and  _487
REMARK  182  A    between atoms: _487  and  _488
REMARK  183  A    between atoms: _487  and  _490
REMARK  184  A    between atoms: _490  and  _491
REMARK  185  A    between atoms: _497  and  _499
REMARK  186  A    between atoms: _499  and  _500
REMARK  187  A    between atoms: _499  and  _502
REMARK  188  A    between atoms: _502  and  _503
REMARK  189  A    between atoms: _509  and  _511
REMARK  190  A    between atoms: _511  and  _512
REMARK  191  A    between atoms: _511  and  _514
REMARK  192  A    between atoms: _514  and  _515
REMARK  193  A    between atoms: _515  and  _516
REMARK  194  A    between atoms: _521  and  _523
REMARK  195  A    between atoms: _523  and  _524
REMARK  196  A    between atoms: _527  and  _529
REMARK  197  A    between atoms: _529  and  _530
REMARK  198  A    between atoms: _529  and  _532
REMARK  199  A    between atoms: _532  and  _533
REMARK  200  A    between atoms: _535  and  _537
REMARK  201  A    between atoms: _537  and  _538
REMARK  202  A    between atoms: _540  and  _542
REMARK  203  A    between atoms: _542  and  _543
REMARK  204  A    between atoms: _542  and  _545
REMARK  205  A    between atoms: _545  and  _546
REMARK  206  A    between atoms: _546  and  _547
REMARK  207  A    between atoms: _553  and  _554
REMARK  208  A    between atoms: _559  and  _561
REMARK  209  A    between atoms: _561  and  _562
REMARK  210  A    between atoms: _561  and  _564
REMARK  211  A    between atoms: _564  and  _565
REMARK  212  A    between atoms: _570  and  _571
REMARK  213  A    between atoms: _573  and  _575
REMARK  214  A    between atoms: _575  and  _576
REMARK  215  A    between atoms: _575  and  _578
REMARK  216  A    between atoms: _578  and  _579
REMARK  217  A    between atoms: _579  and  _580
REMARK  218  A    between atoms: _580  and  _581
REMARK  219  A    between atoms: _590  and  _592
REMARK  220  A    between atoms: _592  and  _593
REMARK  221  A    between atoms: _592  and  _595
REMARK  222  A    between atoms: _595  and  _596
REMARK  223  A    between atoms: _601  and  _602
REMARK  224  A    between atoms: _604  and  _606
REMARK  225  A    between atoms: _606  and  _607
REMARK  226  A    between atoms: _606  and  _609
REMARK  227  A    between atoms: _609  and  _610
REMARK  228  A    between atoms: _610  and  _611
REMARK  229  A    between atoms: _614  and  _616
REMARK  230  A    between atoms: _616  and  _617
REMARK  231  A    between atoms: _616  and  _619
REMARK  232  A    between atoms: _619  and  _620
REMARK  233  A    between atoms: _620  and  _621
REMARK  234  A    between atoms: _621  and  _622
REMARK                            x       y       z     vdW  Elec       q    Type
REMARK                         _______ _______ _______ _____ _____    ______ ____
ROOT
ATOM      1  O   HOH     1       4.243  20.152   1.512  0.00  0.00    +0.000 OA
ENDROOT
TORSDOF 0
REMARK  Name = ../refined-set-2016/4f0c/4f0c_pocket.pdb
REMARK  234 active torsions:
REMARK  status: ('A' for Active; 'I' for Inactive)
REMARK    1  A    between atoms: _1  and  _3
REMARK    2  A    between atoms: _3  and  _4
REMARK    3  A    between atoms: _3  and  _6
REMARK    4  A    between atoms: _6  and  _7
REMARK    5  A    between atoms: _12  and  _14
REMARK    6  A    between atoms: _14  and  _15
REMARK    7  A    between atoms: _14  and  _17
REMARK    8  A    between atoms: _17  and  _18
REMARK    9  A    between atoms: _23  and  _25
REMARK   10  A    between atoms: _25  and  _26
REMARK   11  A    between atoms: _25  and  _28
REMARK   12  A    between atoms: _31  and  _33
REMARK   13  A    between atoms: _33  and  _34
REMARK   14  A    between atoms: _37  and  _38
REMARK   15  A    between atoms: _43  and  _45
REMARK   16  A    between atoms: _45  and  _46
REMARK   17  A    between atoms: _45  and  _48
REMARK   18  A    between atoms: _48  and  _49
REMARK   19  A    between atoms: _54  and  _56
REMARK   20  A    between atoms: _56  and  _57
REMARK   21  A    between atoms: _59  and  _61
REMARK   22  A    between atoms: _61  and  _62
REMARK   23  A    between atoms: _61  and  _64
REMARK   24  A    between atoms: _64  and  _65
REMARK   25  A    between atoms: _75  and  _77
REMARK   26  A    between atoms: _77  and  _78
REMARK   27  A    between atoms: _77  and  _80
REMARK   28  A    between atoms: _80  and  _81
REMARK   29  A    between atoms: _81  and  _82
REMARK   30  A    between atoms: _82  and  _83
REMARK   31  A    between atoms: _83  and  _84
REMARK   32  A    between atoms: _88  and  _90
REMARK   33  A    between atoms: _90  and  _91
REMARK   34  A    between atoms: _90  and  _93
REMARK   35  A    between atoms: _96  and  _98
REMARK   36  A    between atoms: _98  and  _99
REMARK   37  A    between atoms: _98  and  _101
REMARK   38  A    between atoms: _104  and  _106
REMARK   39  A    between atoms: _106  and  _107
REMARK   40  A    between atoms: _106  and  _109
REMARK   41  A    between atoms: _109  and  _110
REMARK   42  A    between atoms: _113  and  _115
REMARK   43  A    between atoms: _115  and  _116
REMARK   44  A    between atoms: _118  and  _120
REMARK   45  A    between atoms: _120  and  _121
REMARK   46  A    between atoms: _120  and  _123
REMARK   47  A    between atoms: _123  and  _124
REMARK   48  A    between atoms: _124  and  _125
REMARK   49  A    between atoms: _125  and  _126
REMARK   50  A    between atoms: _135  and  _137
REMARK   51  A    between atoms: _137  and  _138
REMARK   52  A    between atoms: _137  and  _140
REMARK   53  A    between atoms: _140  and  _141
REMARK   54  A    between atoms: _146  and  _148
REMARK   55  A    between atoms: _148  and  _149
REMARK   56  A    between atoms: _148  and  _151
REMARK   57  A    between atoms: _151  and  _152
REMARK   58  A    between atoms: _152  and  _153
REMARK   59  A    between atoms: _153  and  _154
REMARK   60  A    between atoms: _154  and  _155
REMARK   61  A    between atoms: _159  and  _161
REMARK   62  A    between atoms: _161  and  _162
REMARK   63  A    between atoms: _161  and  _164
REMARK   64  A    between atoms: _164  and  _165
REMARK   65  A    between atoms: _171  and  _173
REMARK   66  A    between atoms: _173  and  _174
REMARK   67  A    between atoms: _173  and  _176
REMARK   68  A    between atoms: _176  and  _177
REMARK   69  A    between atoms: _182  and  _184
REMARK   70  A    between atoms: _184  and  _185
REMARK   71  A    between atoms: _184  and  _187
REMARK   72  A    between atoms: _187  and  _188
REMARK   73  A    between atoms: _193  and  _195
REMARK   74  A    between atoms: _195  and  _196
REMARK   75  A    between atoms: _198  and  _200
REMARK   76  A    between atoms: _200  and  _201
REMARK   77  A    between atoms: _200  and  _203
REMARK   78  A    between atoms: _203  and  _204
REMARK   79  A    between atoms: _204  and  _205
REMARK   80  A    between atoms: _205  and  _206
REMARK   81  A    between atoms: _215  and  _217
REMARK   82  A    between atoms: _217  and  _218
REMARK   83  A    between atoms: _217  and  _220
REMARK   84  A    between atoms: _220  and  _221
REMARK   85  A    between atoms: _225  and  _226
REMARK   86  A    between atoms: _231  and  _233
REMARK   87  A    between atoms: _233  and  _234
REMARK   88  A    between atoms: _237  and  _239
REMARK   89  A    between atoms: _239  and  _240
REMARK   90  A    between atoms: _239  and  _242
REMARK   91  A    between atoms: _242  and  _243
REMARK   92  A    between atoms: _253  and  _255
REMARK   93  A    between atoms: _255  and  _256
REMARK   94  A    between atoms: _255  and  _258
REMARK   95  A    between atoms: _258  and  _259
REMARK   96  A    between atoms: _259  and  _260
REMARK   97  A    between atoms: _263  and  _265
REMARK   98  A    between atoms: _265  and  _266
REMARK   99  A    between atoms: _265  and  _268
REMARK  100  A    between atoms: _268  and  _269
REMARK  101  A    between atoms: _271  and  _273
REMARK  102  A    between atoms: _273  and  _274
REMARK  103  A    between atoms: _273  and  _276
REMARK  104  A    between atoms: _276  and  _277
REMARK  105  A    between atoms: _280  and  _282
REMARK  106  A    between atoms: _282  and  _283
REMARK  107  A    between atoms: _286  and  _288
REMARK  108  A    between atoms: _288  and  _289
REMARK  109  A    between atoms: _288  and  _291
REMARK  110  A    between atoms: _291  and  _292
REMARK  111  A    between atoms: _295  and  _297
REMARK  112  A    between atoms: _297  and  _298
REMARK  113  A    between atoms: _297  and  _300
REMARK  114  A    between atoms: _300  and  _301
REMARK  115  A    between atoms: _301  and  _302
REMARK  116  A    between atoms: _307  and  _309
REMARK  117  A    between atoms: _309  and  _310
REMARK  118  A    between atoms: _313  and  _315
REMARK  119  A    between atoms: _315  and  _316
REMARK  120  A    between atoms: _315  and  _318
REMARK  121  A    between atoms: _318  and  _319
REMARK  122  A    between atoms: _321  and  _323
REMARK  123  A    between atoms: _323  and  _324
REMARK  124  A    between atoms: _326  and  _328
REMARK  125  A    between atoms: _328  and  _329
REMARK  126  A    between atoms: _328  and  _331
REMARK  127  A    between atoms: _331  and  _332
REMARK  128  A    between atoms: _332  and  _333
REMARK  129  A    between atoms: _338  and  _340
REMARK  130  A    between atoms: _340  and  _341
REMARK  131  A    between atoms: _344  and  _345
REMARK  132  A    between atoms: _350  and  _352
REMARK  133  A    between atoms: _352  and  _353
REMARK  134  A    between atoms: _352  and  _355
REMARK  135  A    between atoms: _355  and  _356
REMARK  136  A    between atoms: _361  and  _362
REMARK  137  A    between atoms: _364  and  _366
REMARK  138  A    between atoms: _366  and  _367
REMARK  139  A    between atoms: _366  and  _369
REMARK  140  A    between atoms: _369  and  _370
REMARK  141  A    between atoms: _376  and  _378
REMARK  142  A    between atoms: _378  and  _379
REMARK  143  A    between atoms: _381  and  _383
REMARK  144  A    between atoms: _383  and  _384
REMARK  145  A    between atoms: _383  and  _386
REMARK  146  A    between atoms: _386  and  _387
REMARK  147  A    between atoms: _387  and  _388
REMARK  148  A    between atoms: _393  and  _395
REMARK  149  A    between atoms: _395  and  _396
REMARK  150  A    between atoms: _399  and  _401
REMARK  151  A    between atoms: _401  and  _402
REMARK  152  A    between atoms: _404  and  _406
REMARK  153  A    between atoms: _406  and  _407
REMARK  154  A    between atoms: _406  and  _409
REMARK  155  A    between atoms: _409  and  _410
REMARK  156  A    between atoms: _420  and  _422
REMARK  157  A    between atoms: _422  and  _423
REMARK  158  A    between atoms: _422  and  _425
REMARK  159  A    between atoms: _425  and  _426
REMARK  160  A    between atoms: _432  and  _434
REMARK  161  A    between atoms: _434  and  _435
REMARK  162  A    between atoms: _434  and  _437
REMARK  163  A    between atoms: _440  and  _442
REMARK  164  A    between atoms: _442  and  _443
REMARK  165  A    between atoms: _446  and  _448
REMARK  166  A    between atoms: _448  and  _449
REMARK  167  A    between atoms: _448  and  _451
REMARK  168  A    between atoms: _451  and  _452
REMARK  169  A    between atoms: _452  and  _453
REMARK  170  A    between atoms: _456  and  _458
REMARK  171  A    between atoms: _458  and  _459
REMARK  172  A    between atoms: _458  and  _461
REMARK  173  A    between atoms: _461  and  _462
REMARK  174  A    between atoms: _472  and  _474
REMARK  175  A    between atoms: _474  and  _475
REMARK  176  A    between atoms: _474  and  _477
REMARK  177  A    between atoms: _477  and  _478
REMARK  178  A    between atoms: _478  and  _479
REMARK  179  A    between atoms: _479  and  _480
REMARK  180  A    between atoms: _480  and  _481
REMARK  181  A    between atoms: _485  and  _487
REMARK  182  A    between atoms: _487  and  _488
REMARK  183  A    between atoms: _487  and  _490
REMARK  184  A    between atoms: _490  and  _491
REMARK  185  A    between atoms: _497  and  _499
REMARK  186  A    between atoms: _499  and  _500
REMARK  187  A    between atoms: _499  and  _502
REMARK  188  A    between atoms: _502  and  _503
REMARK  189  A    between atoms: _509  and  _511
REMARK  190  A    between atoms: _511  and  _512
REMARK  191  A    between atoms: _511  and  _514
REMARK  192  A    between atoms: _514  and  _515
REMARK  193  A    between atoms: _515  and  _516
REMARK  194  A    between atoms: _521  and  _523
REMARK  195  A    between atoms: _523  and  _524
REMARK  196  A    between atoms: _527  and  _529
REMARK  197  A    between atoms: _529  and  _530
REMARK  198  A    between atoms: _529  and  _532
REMARK  199  A    between atoms: _532  and  _533
REMARK  200  A    between atoms: _535  and  _537
REMARK  201  A    between atoms: _537  and  _538
REMARK  202  A    between atoms: _540  and  _542
REMARK  203  A    between atoms: _542  and  _543
REMARK  204  A    between atoms: _542  and  _545
REMARK  205  A    between atoms: _545  and  _546
REMARK  206  A    between atoms: _546  and  _547
REMARK  207  A    between atoms: _553  and  _554
REMARK  208  A    between atoms: _559  and  _561
REMARK  209  A    between atoms: _561  and  _562
REMARK  210  A    between atoms: _561  and  _564
REMARK  211  A    between atoms: _564  and  _565
REMARK  212  A    between atoms: _570  and  _571
REMARK  213  A    between atoms: _573  and  _575
REMARK  214  A    between atoms: _575  and  _576
REMARK  215  A    between atoms: _575  and  _578
REMARK  216  A    between atoms: _578  and  _579
REMARK  217  A    between atoms: _579  and  _580
REMARK  218  A    between atoms: _580  and  _581
REMARK  219  A    between atoms: _590  and  _592
REMARK  220  A    between atoms: _592  and  _593
REMARK  221  A    between atoms: _592  and  _595
REMARK  222  A    between atoms: _595  and  _596
REMARK  223  A    between atoms: _601  and  _602
REMARK  224  A    between atoms: _604  and  _606
REMARK  225  A    between atoms: _606  and  _607
REMARK  226  A    between atoms: _606  and  _609
REMARK  227  A    between atoms: _609  and  _610
REMARK  228  A    between atoms: _610  and  _611
REMARK  229  A    between atoms: _614  and  _616
REMARK  230  A    between atoms: _616  and  _617
REMARK  231  A    between atoms: _616  and  _619
REMARK  232  A    between atoms: _619  and  _620
REMARK  233  A    between atoms: _620  and  _621
REMARK  234  A    between atoms: _621  and  _622
REMARK                            x       y       z     vdW  Elec       q    Type
REMARK                         _______ _______ _______ _____ _____    ______ ____
ROOT
ATOM      1  O   HOH     1       9.240  22.224   4.487  0.00  0.00    +0.000 OA
ENDROOT
TORSDOF 0
REMARK  Name = ../refined-set-2016/4f0c/4f0c_pocket.pdb
REMARK  234 active torsions:
REMARK  status: ('A' for Active; 'I' for Inactive)
REMARK    1  A    between atoms: _1  and  _3
REMARK    2  A    between atoms: _3  and  _4
REMARK    3  A    between atoms: _3  and  _6
REMARK    4  A    between atoms: _6  and  _7
REMARK    5  A    between atoms: _12  and  _14
REMARK    6  A    between atoms: _14  and  _15
REMARK    7  A    between atoms: _14  and  _17
REMARK    8  A    between atoms: _17  and  _18
REMARK    9  A    between atoms: _23  and  _25
REMARK   10  A    between atoms: _25  and  _26
REMARK   11  A    between atoms: _25  and  _28
REMARK   12  A    between atoms: _31  and  _33
REMARK   13  A    between atoms: _33  and  _34
REMARK   14  A    between atoms: _37  and  _38
REMARK   15  A    between atoms: _43  and  _45
REMARK   16  A    between atoms: _45  and  _46
REMARK   17  A    between atoms: _45  and  _48
REMARK   18  A    between atoms: _48  and  _49
REMARK   19  A    between atoms: _54  and  _56
REMARK   20  A    between atoms: _56  and  _57
REMARK   21  A    between atoms: _59  and  _61
REMARK   22  A    between atoms: _61  and  _62
REMARK   23  A    between atoms: _61  and  _64
REMARK   24  A    between atoms: _64  and  _65
REMARK   25  A    between atoms: _75  and  _77
REMARK   26  A    between atoms: _77  and  _78
REMARK   27  A    between atoms: _77  and  _80
REMARK   28  A    between atoms: _80  and  _81
REMARK   29  A    between atoms: _81  and  _82
REMARK   30  A    between atoms: _82  and  _83
REMARK   31  A    between atoms: _83  and  _84
REMARK   32  A    between atoms: _88  and  _90
REMARK   33  A    between atoms: _90  and  _91
REMARK   34  A    between atoms: _90  and  _93
REMARK   35  A    between atoms: _96  and  _98
REMARK   36  A    between atoms: _98  and  _99
REMARK   37  A    between atoms: _98  and  _101
REMARK   38  A    between atoms: _104  and  _106
REMARK   39  A    between atoms: _106  and  _107
REMARK   40  A    between atoms: _106  and  _109
REMARK   41  A    between atoms: _109  and  _110
REMARK   42  A    between atoms: _113  and  _115
REMARK   43  A    between atoms: _115  and  _116
REMARK   44  A    between atoms: _118  and  _120
REMARK   45  A    between atoms: _120  and  _121
REMARK   46  A    between atoms: _120  and  _123
REMARK   47  A    between atoms: _123  and  _124
REMARK   48  A    between atoms: _124  and  _125
REMARK   49  A    between atoms: _125  and  _126
REMARK   50  A    between atoms: _135  and  _137
REMARK   51  A    between atoms: _137  and  _138
REMARK   52  A    between atoms: _137  and  _140
REMARK   53  A    between atoms: _140  and  _141
REMARK   54  A    between atoms: _146  and  _148
REMARK   55  A    between atoms: _148  and  _149
REMARK   56  A    between atoms: _148  and  _151
REMARK   57  A    between atoms: _151  and  _152
REMARK   58  A    between atoms: _152  and  _153
REMARK   59  A    between atoms: _153  and  _154
REMARK   60  A    between atoms: _154  and  _155
REMARK   61  A    between atoms: _159  and  _161
REMARK   62  A    between atoms: _161  and  _162
REMARK   63  A    between atoms: _161  and  _164
REMARK   64  A    between atoms: _164  and  _165
REMARK   65  A    between atoms: _171  and  _173
REMARK   66  A    between atoms: _173  and  _174
REMARK   67  A    between atoms: _173  and  _176
REMARK   68  A    between atoms: _176  and  _177
REMARK   69  A    between atoms: _182  and  _184
REMARK   70  A    between atoms: _184  and  _185
REMARK   71  A    between atoms: _184  and  _187
REMARK   72  A    between atoms: _187  and  _188
REMARK   73  A    between atoms: _193  and  _195
REMARK   74  A    between atoms: _195  and  _196
REMARK   75  A    between atoms: _198  and  _200
REMARK   76  A    between atoms: _200  and  _201
REMARK   77  A    between atoms: _200  and  _203
REMARK   78  A    between atoms: _203  and  _204
REMARK   79  A    between atoms: _204  and  _205
REMARK   80  A    between atoms: _205  and  _206
REMARK   81  A    between atoms: _215  and  _217
REMARK   82  A    between atoms: _217  and  _218
REMARK   83  A    between atoms: _217  and  _220
REMARK   84  A    between atoms: _220  and  _221
REMARK   85  A    between atoms: _225  and  _226
REMARK   86  A    between atoms: _231  and  _233
REMARK   87  A    between atoms: _233  and  _234
REMARK   88  A    between atoms: _237  and  _239
REMARK   89  A    between atoms: _239  and  _240
REMARK   90  A    between atoms: _239  and  _242
REMARK   91  A    between atoms: _242  and  _243
REMARK   92  A    between atoms: _253  and  _255
REMARK   93  A    between atoms: _255  and  _256
REMARK   94  A    between atoms: _255  and  _258
REMARK   95  A    between atoms: _258  and  _259
REMARK   96  A    between atoms: _259  and  _260
REMARK   97  A    between atoms: _263  and  _265
REMARK   98  A    between atoms: _265  and  _266
REMARK   99  A    between atoms: _265  and  _268
REMARK  100  A    between atoms: _268  and  _269
REMARK  101  A    between atoms: _271  and  _273
REMARK  102  A    between atoms: _273  and  _274
REMARK  103  A    between atoms: _273  and  _276
REMARK  104  A    between atoms: _276  and  _277
REMARK  105  A    between atoms: _280  and  _282
REMARK  106  A    between atoms: _282  and  _283
REMARK  107  A    between atoms: _286  and  _288
REMARK  108  A    between atoms: _288  and  _289
REMARK  109  A    between atoms: _288  and  _291
REMARK  110  A    between atoms: _291  and  _292
REMARK  111  A    between atoms: _295  and  _297
REMARK  112  A    between atoms: _297  and  _298
REMARK  113  A    between atoms: _297  and  _300
REMARK  114  A    between atoms: _300  and  _301
REMARK  115  A    between atoms: _301  and  _302
REMARK  116  A    between atoms: _307  and  _309
REMARK  117  A    between atoms: _309  and  _310
REMARK  118  A    between atoms: _313  and  _315
REMARK  119  A    between atoms: _315  and  _316
REMARK  120  A    between atoms: _315  and  _318
REMARK  121  A    between atoms: _318  and  _319
REMARK  122  A    between atoms: _321  and  _323
REMARK  123  A    between atoms: _323  and  _324
REMARK  124  A    between atoms: _326  and  _328
REMARK  125  A    between atoms: _328  and  _329
REMARK  126  A    between atoms: _328  and  _331
REMARK  127  A    between atoms: _331  and  _332
REMARK  128  A    between atoms: _332  and  _333
REMARK  129  A    between atoms: _338  and  _340
REMARK  130  A    between atoms: _340  and  _341
REMARK  131  A    between atoms: _344  and  _345
REMARK  132  A    between atoms: _350  and  _352
REMARK  133  A    between atoms: _352  and  _353
REMARK  134  A    between atoms: _352  and  _355
REMARK  135  A    between atoms: _355  and  _356
REMARK  136  A    between atoms: _361  and  _362
REMARK  137  A    between atoms: _364  and  _366
REMARK  138  A    between atoms: _366  and  _367
REMARK  139  A    between atoms: _366  and  _369
REMARK  140  A    between atoms: _369  and  _370
REMARK  141  A    between atoms: _376  and  _378
REMARK  142  A    between atoms: _378  and  _379
REMARK  143  A    between atoms: _381  and  _383
REMARK  144  A    between atoms: _383  and  _384
REMARK  145  A    between atoms: _383  and  _386
REMARK  146  A    between atoms: _386  and  _387
REMARK  147  A    between atoms: _387  and  _388
REMARK  148  A    between atoms: _393  and  _395
REMARK  149  A    between atoms: _395  and  _396
REMARK  150  A    between atoms: _399  and  _401
REMARK  151  A    between atoms: _401  and  _402
REMARK  152  A    between atoms: _404  and  _406
REMARK  153  A    between atoms: _406  and  _407
REMARK  154  A    between atoms: _406  and  _409
REMARK  155  A    between atoms: _409  and  _410
REMARK  156  A    between atoms: _420  and  _422
REMARK  157  A    between atoms: _422  and  _423
REMARK  158  A    between atoms: _422  and  _425
REMARK  159  A    between atoms: _425  and  _426
REMARK  160  A    between atoms: _432  and  _434
REMARK  161  A    between atoms: _434  and  _435
REMARK  162  A    between atoms: _434  and  _437
REMARK  163  A    between atoms: _440  and  _442
REMARK  164  A    between atoms: _442  and  _443
REMARK  165  A    between atoms: _446  and  _448
REMARK  166  A    between atoms: _448  and  _449
REMARK  167  A    between atoms: _448  and  _451
REMARK  168  A    between atoms: _451  and  _452
REMARK  169  A    between atoms: _452  and  _453
REMARK  170  A    between atoms: _456  and  _458
REMARK  171  A    between atoms: _458  and  _459
REMARK  172  A    between atoms: _458  and  _461
REMARK  173  A    between atoms: _461  and  _462
REMARK  174  A    between atoms: _472  and  _474
REMARK  175  A    between atoms: _474  and  _475
REMARK  176  A    between atoms: _474  and  _477
REMARK  177  A    between atoms: _477  and  _478
REMARK  178  A    between atoms: _478  and  _479
REMARK  179  A    between atoms: _479  and  _480
REMARK  180  A    between atoms: _480  and  _481
REMARK  181  A    between atoms: _485  and  _487
REMARK  182  A    between atoms: _487  and  _488
REMARK  183  A    between atoms: _487  and  _490
REMARK  184  A    between atoms: _490  and  _491
REMARK  185  A    between atoms: _497  and  _499
REMARK  186  A    between atoms: _499  and  _500
REMARK  187  A    between atoms: _499  and  _502
REMARK  188  A    between atoms: _502  and  _503
REMARK  189  A    between atoms: _509  and  _511
REMARK  190  A    between atoms: _511  and  _512
REMARK  191  A    between atoms: _511  and  _514
REMARK  192  A    between atoms: _514  and  _515
REMARK  193  A    between atoms: _515  and  _516
REMARK  194  A    between atoms: _521  and  _523
REMARK  195  A    between atoms: _523  and  _524
REMARK  196  A    between atoms: _527  and  _529
REMARK  197  A    between atoms: _529  and  _530
REMARK  198  A    between atoms: _529  and  _532
REMARK  199  A    between atoms: _532  and  _533
REMARK  200  A    between atoms: _535  and  _537
REMARK  201  A    between atoms: _537  and  _538
REMARK  202  A    between atoms: _540  and  _542
REMARK  203  A    between atoms: _542  and  _543
REMARK  204  A    between atoms: _542  and  _545
REMARK  205  A    between atoms: _545  and  _546
REMARK  206  A    between atoms: _546  and  _547
REMARK  207  A    between atoms: _553  and  _554
REMARK  208  A    between atoms: _559  and  _561
REMARK  209  A    between atoms: _561  and  _562
REMARK  210  A    between atoms: _561  and  _564
REMARK  211  A    between atoms: _564  and  _565
REMARK  212  A    between atoms: _570  and  _571
REMARK  213  A    between atoms: _573  and  _575
REMARK  214  A    between atoms: _575  and  _576
REMARK  215  A    between atoms: _575  and  _578
REMARK  216  A    between atoms: _578  and  _579
REMARK  217  A    between atoms: _579  and  _580
REMARK  218  A    between atoms: _580  and  _581
REMARK  219  A    between atoms: _590  and  _592
REMARK  220  A    between atoms: _592  and  _593
REMARK  221  A    between atoms: _592  and  _595
REMARK  222  A    between atoms: _595  and  _596
REMARK  223  A    between atoms: _601  and  _602
REMARK  224  A    between atoms: _604  and  _606
REMARK  225  A    between atoms: _606  and  _607
REMARK  226  A    between atoms: _606  and  _609
REMARK  227  A    between atoms: _609  and  _610
REMARK  228  A    between atoms: _610  and  _611
REMARK  229  A    between atoms: _614  and  _616
REMARK  230  A    between atoms: _616  and  _617
REMARK  231  A    between atoms: _616  and  _619
REMARK  232  A    between atoms: _619  and  _620
REMARK  233  A    between atoms: _620  and  _621
REMARK  234  A    between atoms: _621  and  _622
REMARK                            x       y       z     vdW  Elec       q    Type
REMARK                         _______ _______ _______ _____ _____    ______ ____
ROOT
ATOM      1  O   HOH     1       3.668  19.785  14.155  0.00  0.00    +0.000 OA
ENDROOT
TORSDOF 0
REMARK  Name = ../refined-set-2016/4f0c/4f0c_pocket.pdb
REMARK  234 active torsions:
REMARK  status: ('A' for Active; 'I' for Inactive)
REMARK    1  A    between atoms: _1  and  _3
REMARK    2  A    between atoms: _3  and  _4
REMARK    3  A    between atoms: _3  and  _6
REMARK    4  A    between atoms: _6  and  _7
REMARK    5  A    between atoms: _12  and  _14
REMARK    6  A    between atoms: _14  and  _15
REMARK    7  A    between atoms: _14  and  _17
REMARK    8  A    between atoms: _17  and  _18
REMARK    9  A    between atoms: _23  and  _25
REMARK   10  A    between atoms: _25  and  _26
REMARK   11  A    between atoms: _25  and  _28
REMARK   12  A    between atoms: _31  and  _33
REMARK   13  A    between atoms: _33  and  _34
REMARK   14  A    between atoms: _37  and  _38
REMARK   15  A    between atoms: _43  and  _45
REMARK   16  A    between atoms: _45  and  _46
REMARK   17  A    between atoms: _45  and  _48
REMARK   18  A    between atoms: _48  and  _49
REMARK   19  A    between atoms: _54  and  _56
REMARK   20  A    between atoms: _56  and  _57
REMARK   21  A    between atoms: _59  and  _61
REMARK   22  A    between atoms: _61  and  _62
REMARK   23  A    between atoms: _61  and  _64
REMARK   24  A    between atoms: _64  and  _65
REMARK   25  A    between atoms: _75  and  _77
REMARK   26  A    between atoms: _77  and  _78
REMARK   27  A    between atoms: _77  and  _80
REMARK   28  A    between atoms: _80  and  _81
REMARK   29  A    between atoms: _81  and  _82
REMARK   30  A    between atoms: _82  and  _83
REMARK   31  A    between atoms: _83  and  _84
REMARK   32  A    between atoms: _88  and  _90
REMARK   33  A    between atoms: _90  and  _91
REMARK   34  A    between atoms: _90  and  _93
REMARK   35  A    between atoms: _96  and  _98
REMARK   36  A    between atoms: _98  and  _99
REMARK   37  A    between atoms: _98  and  _101
REMARK   38  A    between atoms: _104  and  _106
REMARK   39  A    between atoms: _106  and  _107
REMARK   40  A    between atoms: _106  and  _109
REMARK   41  A    between atoms: _109  and  _110
REMARK   42  A    between atoms: _113  and  _115
REMARK   43  A    between atoms: _115  and  _116
REMARK   44  A    between atoms: _118  and  _120
REMARK   45  A    between atoms: _120  and  _121
REMARK   46  A    between atoms: _120  and  _123
REMARK   47  A    between atoms: _123  and  _124
REMARK   48  A    between atoms: _124  and  _125
REMARK   49  A    between atoms: _125  and  _126
REMARK   50  A    between atoms: _135  and  _137
REMARK   51  A    between atoms: _137  and  _138
REMARK   52  A    between atoms: _137  and  _140
REMARK   53  A    between atoms: _140  and  _141
REMARK   54  A    between atoms: _146  and  _148
REMARK   55  A    between atoms: _148  and  _149
REMARK   56  A    between atoms: _148  and  _151
REMARK   57  A    between atoms: _151  and  _152
REMARK   58  A    between atoms: _152  and  _153
REMARK   59  A    between atoms: _153  and  _154
REMARK   60  A    between atoms: _154  and  _155
REMARK   61  A    between atoms: _159  and  _161
REMARK   62  A    between atoms: _161  and  _162
REMARK   63  A    between atoms: _161  and  _164
REMARK   64  A    between atoms: _164  and  _165
REMARK   65  A    between atoms: _171  and  _173
REMARK   66  A    between atoms: _173  and  _174
REMARK   67  A    between atoms: _173  and  _176
REMARK   68  A    between atoms: _176  and  _177
REMARK   69  A    between atoms: _182  and  _184
REMARK   70  A    between atoms: _184  and  _185
REMARK   71  A    between atoms: _184  and  _187
REMARK   72  A    between atoms: _187  and  _188
REMARK   73  A    between atoms: _193  and  _195
REMARK   74  A    between atoms: _195  and  _196
REMARK   75  A    between atoms: _198  and  _200
REMARK   76  A    between atoms: _200  and  _201
REMARK   77  A    between atoms: _200  and  _203
REMARK   78  A    between atoms: _203  and  _204
REMARK   79  A    between atoms: _204  and  _205
REMARK   80  A    between atoms: _205  and  _206
REMARK   81  A    between atoms: _215  and  _217
REMARK   82  A    between atoms: _217  and  _218
REMARK   83  A    between atoms: _217  and  _220
REMARK   84  A    between atoms: _220  and  _221
REMARK   85  A    between atoms: _225  and  _226
REMARK   86  A    between atoms: _231  and  _233
REMARK   87  A    between atoms: _233  and  _234
REMARK   88  A    between atoms: _237  and  _239
REMARK   89  A    between atoms: _239  and  _240
REMARK   90  A    between atoms: _239  and  _242
REMARK   91  A    between atoms: _242  and  _243
REMARK   92  A    between atoms: _253  and  _255
REMARK   93  A    between atoms: _255  and  _256
REMARK   94  A    between atoms: _255  and  _258
REMARK   95  A    between atoms: _258  and  _259
REMARK   96  A    between atoms: _259  and  _260
REMARK   97  A    between atoms: _263  and  _265
REMARK   98  A    between atoms: _265  and  _266
REMARK   99  A    between atoms: _265  and  _268
REMARK  100  A    between atoms: _268  and  _269
REMARK  101  A    between atoms: _271  and  _273
REMARK  102  A    between atoms: _273  and  _274
REMARK  103  A    between atoms: _273  and  _276
REMARK  104  A    between atoms: _276  and  _277
REMARK  105  A    between atoms: _280  and  _282
REMARK  106  A    between atoms: _282  and  _283
REMARK  107  A    between atoms: _286  and  _288
REMARK  108  A    between atoms: _288  and  _289
REMARK  109  A    between atoms: _288  and  _291
REMARK  110  A    between atoms: _291  and  _292
REMARK  111  A    between atoms: _295  and  _297
REMARK  112  A    between atoms: _297  and  _298
REMARK  113  A    between atoms: _297  and  _300
REMARK  114  A    between atoms: _300  and  _301
REMARK  115  A    between atoms: _301  and  _302
REMARK  116  A    between atoms: _307  and  _309
REMARK  117  A    between atoms: _309  and  _310
REMARK  118  A    between atoms: _313  and  _315
REMARK  119  A    between atoms: _315  and  _316
REMARK  120  A    between atoms: _315  and  _318
REMARK  121  A    between atoms: _318  and  _319
REMARK  122  A    between atoms: _321  and  _323
REMARK  123  A    between atoms: _323  and  _324
REMARK  124  A    between atoms: _326  and  _328
REMARK  125  A    between atoms: _328  and  _329
REMARK  126  A    between atoms: _328  and  _331
REMARK  127  A    between atoms: _331  and  _332
REMARK  128  A    between atoms: _332  and  _333
REMARK  129  A    between atoms: _338  and  _340
REMARK  130  A    between atoms: _340  and  _341
REMARK  131  A    between atoms: _344  and  _345
REMARK  132  A    between atoms: _350  and  _352
REMARK  133  A    between atoms: _352  and  _353
REMARK  134  A    between atoms: _352  and  _355
REMARK  135  A    between atoms: _355  and  _356
REMARK  136  A    between atoms: _361  and  _362
REMARK  137  A    between atoms: _364  and  _366
REMARK  138  A    between atoms: _366  and  _367
REMARK  139  A    between atoms: _366  and  _369
REMARK  140  A    between atoms: _369  and  _370
REMARK  141  A    between atoms: _376  and  _378
REMARK  142  A    between atoms: _378  and  _379
REMARK  143  A    between atoms: _381  and  _383
REMARK  144  A    between atoms: _383  and  _384
REMARK  145  A    between atoms: _383  and  _386
REMARK  146  A    between atoms: _386  and  _387
REMARK  147  A    between atoms: _387  and  _388
REMARK  148  A    between atoms: _393  and  _395
REMARK  149  A    between atoms: _395  and  _396
REMARK  150  A    between atoms: _399  and  _401
REMARK  151  A    between atoms: _401  and  _402
REMARK  152  A    between atoms: _404  and  _406
REMARK  153  A    between atoms: _406  and  _407
REMARK  154  A    between atoms: _406  and  _409
REMARK  155  A    between atoms: _409  and  _410
REMARK  156  A    between atoms: _420  and  _422
REMARK  157  A    between atoms: _422  and  _423
REMARK  158  A    between atoms: _422  and  _425
REMARK  159  A    between atoms: _425  and  _426
REMARK  160  A    between atoms: _432  and  _434
REMARK  161  A    between atoms: _434  and  _435
REMARK  162  A    between atoms: _434  and  _437
REMARK  163  A    between atoms: _440  and  _442
REMARK  164  A    between atoms: _442  and  _443
REMARK  165  A    between atoms: _446  and  _448
REMARK  166  A    between atoms: _448  and  _449
REMARK  167  A    between atoms: _448  and  _451
REMARK  168  A    between atoms: _451  and  _452
REMARK  169  A    between atoms: _452  and  _453
REMARK  170  A    between atoms: _456  and  _458
REMARK  171  A    between atoms: _458  and  _459
REMARK  172  A    between atoms: _458  and  _461
REMARK  173  A    between atoms: _461  and  _462
REMARK  174  A    between atoms: _472  and  _474
REMARK  175  A    between atoms: _474  and  _475
REMARK  176  A    between atoms: _474  and  _477
REMARK  177  A    between atoms: _477  and  _478
REMARK  178  A    between atoms: _478  and  _479
REMARK  179  A    between atoms: _479  and  _480
REMARK  180  A    between atoms: _480  and  _481
REMARK  181  A    between atoms: _485  and  _487
REMARK  182  A    between atoms: _487  and  _488
REMARK  183  A    between atoms: _487  and  _490
REMARK  184  A    between atoms: _490  and  _491
REMARK  185  A    between atoms: _497  and  _499
REMARK  186  A    between atoms: _499  and  _500
REMARK  187  A    between atoms: _499  and  _502
REMARK  188  A    between atoms: _502  and  _503
REMARK  189  A    between atoms: _509  and  _511
REMARK  190  A    between atoms: _511  and  _512
REMARK  191  A    between atoms: _511  and  _514
REMARK  192  A    between atoms: _514  and  _515
REMARK  193  A    between atoms: _515  and  _516
REMARK  194  A    between atoms: _521  and  _523
REMARK  195  A    between atoms: _523  and  _524
REMARK  196  A    between atoms: _527  and  _529
REMARK  197  A    between atoms: _529  and  _530
REMARK  198  A    between atoms: _529  and  _532
REMARK  199  A    between atoms: _532  and  _533
REMARK  200  A    between atoms: _535  and  _537
REMARK  201  A    between atoms: _537  and  _538
REMARK  202  A    between atoms: _540  and  _542
REMARK  203  A    between atoms: _542  and  _543
REMARK  204  A    between atoms: _542  and  _545
REMARK  205  A    between atoms: _545  and  _546
REMARK  206  A    between atoms: _546  and  _547
REMARK  207  A    between atoms: _553  and  _554
REMARK  208  A    between atoms: _559  and  _561
REMARK  209  A    between atoms: _561  and  _562
REMARK  210  A    between atoms: _561  and  _564
REMARK  211  A    between atoms: _564  and  _565
REMARK  212  A    between atoms: _570  and  _571
REMARK  213  A    between atoms: _573  and  _575
REMARK  214  A    between atoms: _575  and  _576
REMARK  215  A    between atoms: _575  and  _578
REMARK  216  A    between atoms: _578  and  _579
REMARK  217  A    between atoms: _579  and  _580
REMARK  218  A    between atoms: _580  and  _581
REMARK  219  A    between atoms: _590  and  _592
REMARK  220  A    between atoms: _592  and  _593
REMARK  221  A    between atoms: _592  and  _595
REMARK  222  A    between atoms: _595  and  _596
REMARK  223  A    between atoms: _601  and  _602
REMARK  224  A    between atoms: _604  and  _606
REMARK  225  A    between atoms: _606  and  _607
REMARK  226  A    between atoms: _606  and  _609
REMARK  227  A    between atoms: _609  and  _610
REMARK  228  A    between atoms: _610  and  _611
REMARK  229  A    between atoms: _614  and  _616
REMARK  230  A    between atoms: _616  and  _617
REMARK  231  A    between atoms: _616  and  _619
REMARK  232  A    between atoms: _619  and  _620
REMARK  233  A    between atoms: _620  and  _621
REMARK  234  A    between atoms: _621  and  _622
REMARK                            x       y       z     vdW  Elec       q    Type
REMARK                         _______ _______ _______ _____ _____    ______ ____
ROOT
ATOM      1  O   HOH     1       3.574  23.841   6.198  0.00  0.00    +0.000 OA
ENDROOT
TORSDOF 0
REMARK  Name = ../refined-set-2016/4f0c/4f0c_pocket.pdb
REMARK  234 active torsions:
REMARK  status: ('A' for Active; 'I' for Inactive)
REMARK    1  A    between atoms: _1  and  _3
REMARK    2  A    between atoms: _3  and  _4
REMARK    3  A    between atoms: _3  and  _6
REMARK    4  A    between atoms: _6  and  _7
REMARK    5  A    between atoms: _12  and  _14
REMARK    6  A    between atoms: _14  and  _15
REMARK    7  A    between atoms: _14  and  _17
REMARK    8  A    between atoms: _17  and  _18
REMARK    9  A    between atoms: _23  and  _25
REMARK   10  A    between atoms: _25  and  _26
REMARK   11  A    between atoms: _25  and  _28
REMARK   12  A    between atoms: _31  and  _33
REMARK   13  A    between atoms: _33  and  _34
REMARK   14  A    between atoms: _37  and  _38
REMARK   15  A    between atoms: _43  and  _45
REMARK   16  A    between atoms: _45  and  _46
REMARK   17  A    between atoms: _45  and  _48
REMARK   18  A    between atoms: _48  and  _49
REMARK   19  A    between atoms: _54  and  _56
REMARK   20  A    between atoms: _56  and  _57
REMARK   21  A    between atoms: _59  and  _61
REMARK   22  A    between atoms: _61  and  _62
REMARK   23  A    between atoms: _61  and  _64
REMARK   24  A    between atoms: _64  and  _65
REMARK   25  A    between atoms: _75  and  _77
REMARK   26  A    between atoms: _77  and  _78
REMARK   27  A    between atoms: _77  and  _80
REMARK   28  A    between atoms: _80  and  _81
REMARK   29  A    between atoms: _81  and  _82
REMARK   30  A    between atoms: _82  and  _83
REMARK   31  A    between atoms: _83  and  _84
REMARK   32  A    between atoms: _88  and  _90
REMARK   33  A    between atoms: _90  and  _91
REMARK   34  A    between atoms: _90  and  _93
REMARK   35  A    between atoms: _96  and  _98
REMARK   36  A    between atoms: _98  and  _99
REMARK   37  A    between atoms: _98  and  _101
REMARK   38  A    between atoms: _104  and  _106
REMARK   39  A    between atoms: _106  and  _107
REMARK   40  A    between atoms: _106  and  _109
REMARK   41  A    between atoms: _109  and  _110
REMARK   42  A    between atoms: _113  and  _115
REMARK   43  A    between atoms: _115  and  _116
REMARK   44  A    between atoms: _118  and  _120
REMARK   45  A    between atoms: _120  and  _121
REMARK   46  A    between atoms: _120  and  _123
REMARK   47  A    between atoms: _123  and  _124
REMARK   48  A    between atoms: _124  and  _125
REMARK   49  A    between atoms: _125  and  _126
REMARK   50  A    between atoms: _135  and  _137
REMARK   51  A    between atoms: _137  and  _138
REMARK   52  A    between atoms: _137  and  _140
REMARK   53  A    between atoms: _140  and  _141
REMARK   54  A    between atoms: _146  and  _148
REMARK   55  A    between atoms: _148  and  _149
REMARK   56  A    between atoms: _148  and  _151
REMARK   57  A    between atoms: _151  and  _152
REMARK   58  A    between atoms: _152  and  _153
REMARK   59  A    between atoms: _153  and  _154
REMARK   60  A    between atoms: _154  and  _155
REMARK   61  A    between atoms: _159  and  _161
REMARK   62  A    between atoms: _161  and  _162
REMARK   63  A    between atoms: _161  and  _164
REMARK   64  A    between atoms: _164  and  _165
REMARK   65  A    between atoms: _171  and  _173
REMARK   66  A    between atoms: _173  and  _174
REMARK   67  A    between atoms: _173  and  _176
REMARK   68  A    between atoms: _176  and  _177
REMARK   69  A    between atoms: _182  and  _184
REMARK   70  A    between atoms: _184  and  _185
REMARK   71  A    between atoms: _184  and  _187
REMARK   72  A    between atoms: _187  and  _188
REMARK   73  A    between atoms: _193  and  _195
REMARK   74  A    between atoms: _195  and  _196
REMARK   75  A    between atoms: _198  and  _200
REMARK   76  A    between atoms: _200  and  _201
REMARK   77  A    between atoms: _200  and  _203
REMARK   78  A    between atoms: _203  and  _204
REMARK   79  A    between atoms: _204  and  _205
REMARK   80  A    between atoms: _205  and  _206
REMARK   81  A    between atoms: _215  and  _217
REMARK   82  A    between atoms: _217  and  _218
REMARK   83  A    between atoms: _217  and  _220
REMARK   84  A    between atoms: _220  and  _221
REMARK   85  A    between atoms: _225  and  _226
REMARK   86  A    between atoms: _231  and  _233
REMARK   87  A    between atoms: _233  and  _234
REMARK   88  A    between atoms: _237  and  _239
REMARK   89  A    between atoms: _239  and  _240
REMARK   90  A    between atoms: _239  and  _242
REMARK   91  A    between atoms: _242  and  _243
REMARK   92  A    between atoms: _253  and  _255
REMARK   93  A    between atoms: _255  and  _256
REMARK   94  A    between atoms: _255  and  _258
REMARK   95  A    between atoms: _258  and  _259
REMARK   96  A    between atoms: _259  and  _260
REMARK   97  A    between atoms: _263  and  _265
REMARK   98  A    between atoms: _265  and  _266
REMARK   99  A    between atoms: _265  and  _268
REMARK  100  A    between atoms: _268  and  _269
REMARK  101  A    between atoms: _271  and  _273
REMARK  102  A    between atoms: _273  and  _274
REMARK  103  A    between atoms: _273  and  _276
REMARK  104  A    between atoms: _276  and  _277
REMARK  105  A    between atoms: _280  and  _282
REMARK  106  A    between atoms: _282  and  _283
REMARK  107  A    between atoms: _286  and  _288
REMARK  108  A    between atoms: _288  and  _289
REMARK  109  A    between atoms: _288  and  _291
REMARK  110  A    between atoms: _291  and  _292
REMARK  111  A    between atoms: _295  and  _297
REMARK  112  A    between atoms: _297  and  _298
REMARK  113  A    between atoms: _297  and  _300
REMARK  114  A    between atoms: _300  and  _301
REMARK  115  A    between atoms: _301  and  _302
REMARK  116  A    between atoms: _307  and  _309
REMARK  117  A    between atoms: _309  and  _310
REMARK  118  A    between atoms: _313  and  _315
REMARK  119  A    between atoms: _315  and  _316
REMARK  120  A    between atoms: _315  and  _318
REMARK  121  A    between atoms: _318  and  _319
REMARK  122  A    between atoms: _321  and  _323
REMARK  123  A    between atoms: _323  and  _324
REMARK  124  A    between atoms: _326  and  _328
REMARK  125  A    between atoms: _328  and  _329
REMARK  126  A    between atoms: _328  and  _331
REMARK  127  A    between atoms: _331  and  _332
REMARK  128  A    between atoms: _332  and  _333
REMARK  129  A    between atoms: _338  and  _340
REMARK  130  A    between atoms: _340  and  _341
REMARK  131  A    between atoms: _344  and  _345
REMARK  132  A    between atoms: _350  and  _352
REMARK  133  A    between atoms: _352  and  _353
REMARK  134  A    between atoms: _352  and  _355
REMARK  135  A    between atoms: _355  and  _356
REMARK  136  A    between atoms: _361  and  _362
REMARK  137  A    between atoms: _364  and  _366
REMARK  138  A    between atoms: _366  and  _367
REMARK  139  A    between atoms: _366  and  _369
REMARK  140  A    between atoms: _369  and  _370
REMARK  141  A    between atoms: _376  and  _378
REMARK  142  A    between atoms: _378  and  _379
REMARK  143  A    between atoms: _381  and  _383
REMARK  144  A    between atoms: _383  and  _384
REMARK  145  A    between atoms: _383  and  _386
REMARK  146  A    between atoms: _386  and  _387
REMARK  147  A    between atoms: _387  and  _388
REMARK  148  A    between atoms: _393  and  _395
REMARK  149  A    between atoms: _395  and  _396
REMARK  150  A    between atoms: _399  and  _401
REMARK  151  A    between atoms: _401  and  _402
REMARK  152  A    between atoms: _404  and  _406
REMARK  153  A    between atoms: _406  and  _407
REMARK  154  A    between atoms: _406  and  _409
REMARK  155  A    between atoms: _409  and  _410
REMARK  156  A    between atoms: _420  and  _422
REMARK  157  A    between atoms: _422  and  _423
REMARK  158  A    between atoms: _422  and  _425
REMARK  159  A    between atoms: _425  and  _426
REMARK  160  A    between atoms: _432  and  _434
REMARK  161  A    between atoms: _434  and  _435
REMARK  162  A    between atoms: _434  and  _437
REMARK  163  A    between atoms: _440  and  _442
REMARK  164  A    between atoms: _442  and  _443
REMARK  165  A    between atoms: _446  and  _448
REMARK  166  A    between atoms: _448  and  _449
REMARK  167  A    between atoms: _448  and  _451
REMARK  168  A    between atoms: _451  and  _452
REMARK  169  A    between atoms: _452  and  _453
REMARK  170  A    between atoms: _456  and  _458
REMARK  171  A    between atoms: _458  and  _459
REMARK  172  A    between atoms: _458  and  _461
REMARK  173  A    between atoms: _461  and  _462
REMARK  174  A    between atoms: _472  and  _474
REMARK  175  A    between atoms: _474  and  _475
REMARK  176  A    between atoms: _474  and  _477
REMARK  177  A    between atoms: _477  and  _478
REMARK  178  A    between atoms: _478  and  _479
REMARK  179  A    between atoms: _479  and  _480
REMARK  180  A    between atoms: _480  and  _481
REMARK  181  A    between atoms: _485  and  _487
REMARK  182  A    between atoms: _487  and  _488
REMARK  183  A    between atoms: _487  and  _490
REMARK  184  A    between atoms: _490  and  _491
REMARK  185  A    between atoms: _497  and  _499
REMARK  186  A    between atoms: _499  and  _500
REMARK  187  A    between atoms: _499  and  _502
REMARK  188  A    between atoms: _502  and  _503
REMARK  189  A    between atoms: _509  and  _511
REMARK  190  A    between atoms: _511  and  _512
REMARK  191  A    between atoms: _511  and  _514
REMARK  192  A    between atoms: _514  and  _515
REMARK  193  A    between atoms: _515  and  _516
REMARK  194  A    between atoms: _521  and  _523
REMARK  195  A    between atoms: _523  and  _524
REMARK  196  A    between atoms: _527  and  _529
REMARK  197  A    between atoms: _529  and  _530
REMARK  198  A    between atoms: _529  and  _532
REMARK  199  A    between atoms: _532  and  _533
REMARK  200  A    between atoms: _535  and  _537
REMARK  201  A    between atoms: _537  and  _538
REMARK  202  A    between atoms: _540  and  _542
REMARK  203  A    between atoms: _542  and  _543
REMARK  204  A    between atoms: _542  and  _545
REMARK  205  A    between atoms: _545  and  _546
REMARK  206  A    between atoms: _546  and  _547
REMARK  207  A    between atoms: _553  and  _554
REMARK  208  A    between atoms: _559  and  _561
REMARK  209  A    between atoms: _561  and  _562
REMARK  210  A    between atoms: _561  and  _564
REMARK  211  A    between atoms: _564  and  _565
REMARK  212  A    between atoms: _570  and  _571
REMARK  213  A    between atoms: _573  and  _575
REMARK  214  A    between atoms: _575  and  _576
REMARK  215  A    between atoms: _575  and  _578
REMARK  216  A    between atoms: _578  and  _579
REMARK  217  A    between atoms: _579  and  _580
REMARK  218  A    between atoms: _580  and  _581
REMARK  219  A    between atoms: _590  and  _592
REMARK  220  A    between atoms: _592  and  _593
REMARK  221  A    between atoms: _592  and  _595
REMARK  222  A    between atoms: _595  and  _596
REMARK  223  A    between atoms: _601  and  _602
REMARK  224  A    between atoms: _604  and  _606
REMARK  225  A    between atoms: _606  and  _607
REMARK  226  A    between atoms: _606  and  _609
REMARK  227  A    between atoms: _609  and  _610
REMARK  228  A    between atoms: _610  and  _611
REMARK  229  A    between atoms: _614  and  _616
REMARK  230  A    between atoms: _616  and  _617
REMARK  231  A    between atoms: _616  and  _619
REMARK  232  A    between atoms: _619  and  _620
REMARK  233  A    between atoms: _620  and  _621
REMARK  234  A    between atoms: _621  and  _622
REMARK                            x       y       z     vdW  Elec       q    Type
REMARK                         _______ _______ _______ _____ _____    ______ ____
ROOT
ATOM      1  O   HOH     1       2.522  23.109   3.664  0.00  0.00    +0.000 OA
ENDROOT
TORSDOF 0
REMARK  Name = ../refined-set-2016/4f0c/4f0c_pocket.pdb
REMARK  234 active torsions:
REMARK  status: ('A' for Active; 'I' for Inactive)
REMARK    1  A    between atoms: _1  and  _3
REMARK    2  A    between atoms: _3  and  _4
REMARK    3  A    between atoms: _3  and  _6
REMARK    4  A    between atoms: _6  and  _7
REMARK    5  A    between atoms: _12  and  _14
REMARK    6  A    between atoms: _14  and  _15
REMARK    7  A    between atoms: _14  and  _17
REMARK    8  A    between atoms: _17  and  _18
REMARK    9  A    between atoms: _23  and  _25
REMARK   10  A    between atoms: _25  and  _26
REMARK   11  A    between atoms: _25  and  _28
REMARK   12  A    between atoms: _31  and  _33
REMARK   13  A    between atoms: _33  and  _34
REMARK   14  A    between atoms: _37  and  _38
REMARK   15  A    between atoms: _43  and  _45
REMARK   16  A    between atoms: _45  and  _46
REMARK   17  A    between atoms: _45  and  _48
REMARK   18  A    between atoms: _48  and  _49
REMARK   19  A    between atoms: _54  and  _56
REMARK   20  A    between atoms: _56  and  _57
REMARK   21  A    between atoms: _59  and  _61
REMARK   22  A    between atoms: _61  and  _62
REMARK   23  A    between atoms: _61  and  _64
REMARK   24  A    between atoms: _64  and  _65
REMARK   25  A    between atoms: _75  and  _77
REMARK   26  A    between atoms: _77  and  _78
REMARK   27  A    between atoms: _77  and  _80
REMARK   28  A    between atoms: _80  and  _81
REMARK   29  A    between atoms: _81  and  _82
REMARK   30  A    between atoms: _82  and  _83
REMARK   31  A    between atoms: _83  and  _84
REMARK   32  A    between atoms: _88  and  _90
REMARK   33  A    between atoms: _90  and  _91
REMARK   34  A    between atoms: _90  and  _93
REMARK   35  A    between atoms: _96  and  _98
REMARK   36  A    between atoms: _98  and  _99
REMARK   37  A    between atoms: _98  and  _101
REMARK   38  A    between atoms: _104  and  _106
REMARK   39  A    between atoms: _106  and  _107
REMARK   40  A    between atoms: _106  and  _109
REMARK   41  A    between atoms: _109  and  _110
REMARK   42  A    between atoms: _113  and  _115
REMARK   43  A    between atoms: _115  and  _116
REMARK   44  A    between atoms: _118  and  _120
REMARK   45  A    between atoms: _120  and  _121
REMARK   46  A    between atoms: _120  and  _123
REMARK   47  A    between atoms: _123  and  _124
REMARK   48  A    between atoms: _124  and  _125
REMARK   49  A    between atoms: _125  and  _126
REMARK   50  A    between atoms: _135  and  _137
REMARK   51  A    between atoms: _137  and  _138
REMARK   52  A    between atoms: _137  and  _140
REMARK   53  A    between atoms: _140  and  _141
REMARK   54  A    between atoms: _146  and  _148
REMARK   55  A    between atoms: _148  and  _149
REMARK   56  A    between atoms: _148  and  _151
REMARK   57  A    between atoms: _151  and  _152
REMARK   58  A    between atoms: _152  and  _153
REMARK   59  A    between atoms: _153  and  _154
REMARK   60  A    between atoms: _154  and  _155
REMARK   61  A    between atoms: _159  and  _161
REMARK   62  A    between atoms: _161  and  _162
REMARK   63  A    between atoms: _161  and  _164
REMARK   64  A    between atoms: _164  and  _165
REMARK   65  A    between atoms: _171  and  _173
REMARK   66  A    between atoms: _173  and  _174
REMARK   67  A    between atoms: _173  and  _176
REMARK   68  A    between atoms: _176  and  _177
REMARK   69  A    between atoms: _182  and  _184
REMARK   70  A    between atoms: _184  and  _185
REMARK   71  A    between atoms: _184  and  _187
REMARK   72  A    between atoms: _187  and  _188
REMARK   73  A    between atoms: _193  and  _195
REMARK   74  A    between atoms: _195  and  _196
REMARK   75  A    between atoms: _198  and  _200
REMARK   76  A    between atoms: _200  and  _201
REMARK   77  A    between atoms: _200  and  _203
REMARK   78  A    between atoms: _203  and  _204
REMARK   79  A    between atoms: _204  and  _205
REMARK   80  A    between atoms: _205  and  _206
REMARK   81  A    between atoms: _215  and  _217
REMARK   82  A    between atoms: _217  and  _218
REMARK   83  A    between atoms: _217  and  _220
REMARK   84  A    between atoms: _220  and  _221
REMARK   85  A    between atoms: _225  and  _226
REMARK   86  A    between atoms: _231  and  _233
REMARK   87  A    between atoms: _233  and  _234
REMARK   88  A    between atoms: _237  and  _239
REMARK   89  A    between atoms: _239  and  _240
REMARK   90  A    between atoms: _239  and  _242
REMARK   91  A    between atoms: _242  and  _243
REMARK   92  A    between atoms: _253  and  _255
REMARK   93  A    between atoms: _255  and  _256
REMARK   94  A    between atoms: _255  and  _258
REMARK   95  A    between atoms: _258  and  _259
REMARK   96  A    between atoms: _259  and  _260
REMARK   97  A    between atoms: _263  and  _265
REMARK   98  A    between atoms: _265  and  _266
REMARK   99  A    between atoms: _265  and  _268
REMARK  100  A    between atoms: _268  and  _269
REMARK  101  A    between atoms: _271  and  _273
REMARK  102  A    between atoms: _273  and  _274
REMARK  103  A    between atoms: _273  and  _276
REMARK  104  A    between atoms: _276  and  _277
REMARK  105  A    between atoms: _280  and  _282
REMARK  106  A    between atoms: _282  and  _283
REMARK  107  A    between atoms: _286  and  _288
REMARK  108  A    between atoms: _288  and  _289
REMARK  109  A    between atoms: _288  and  _291
REMARK  110  A    between atoms: _291  and  _292
REMARK  111  A    between atoms: _295  and  _297
REMARK  112  A    between atoms: _297  and  _298
REMARK  113  A    between atoms: _297  and  _300
REMARK  114  A    between atoms: _300  and  _301
REMARK  115  A    between atoms: _301  and  _302
REMARK  116  A    between atoms: _307  and  _309
REMARK  117  A    between atoms: _309  and  _310
REMARK  118  A    between atoms: _313  and  _315
REMARK  119  A    between atoms: _315  and  _316
REMARK  120  A    between atoms: _315  and  _318
REMARK  121  A    between atoms: _318  and  _319
REMARK  122  A    between atoms: _321  and  _323
REMARK  123  A    between atoms: _323  and  _324
REMARK  124  A    between atoms: _326  and  _328
REMARK  125  A    between atoms: _328  and  _329
REMARK  126  A    between atoms: _328  and  _331
REMARK  127  A    between atoms: _331  and  _332
REMARK  128  A    between atoms: _332  and  _333
REMARK  129  A    between atoms: _338  and  _340
REMARK  130  A    between atoms: _340  and  _341
REMARK  131  A    between atoms: _344  and  _345
REMARK  132  A    between atoms: _350  and  _352
REMARK  133  A    between atoms: _352  and  _353
REMARK  134  A    between atoms: _352  and  _355
REMARK  135  A    between atoms: _355  and  _356
REMARK  136  A    between atoms: _361  and  _362
REMARK  137  A    between atoms: _364  and  _366
REMARK  138  A    between atoms: _366  and  _367
REMARK  139  A    between atoms: _366  and  _369
REMARK  140  A    between atoms: _369  and  _370
REMARK  141  A    between atoms: _376  and  _378
REMARK  142  A    between atoms: _378  and  _379
REMARK  143  A    between atoms: _381  and  _383
REMARK  144  A    between atoms: _383  and  _384
REMARK  145  A    between atoms: _383  and  _386
REMARK  146  A    between atoms: _386  and  _387
REMARK  147  A    between atoms: _387  and  _388
REMARK  148  A    between atoms: _393  and  _395
REMARK  149  A    between atoms: _395  and  _396
REMARK  150  A    between atoms: _399  and  _401
REMARK  151  A    between atoms: _401  and  _402
REMARK  152  A    between atoms: _404  and  _406
REMARK  153  A    between atoms: _406  and  _407
REMARK  154  A    between atoms: _406  and  _409
REMARK  155  A    between atoms: _409  and  _410
REMARK  156  A    between atoms: _420  and  _422
REMARK  157  A    between atoms: _422  and  _423
REMARK  158  A    between atoms: _422  and  _425
REMARK  159  A    between atoms: _425  and  _426
REMARK  160  A    between atoms: _432  and  _434
REMARK  161  A    between atoms: _434  and  _435
REMARK  162  A    between atoms: _434  and  _437
REMARK  163  A    between atoms: _440  and  _442
REMARK  164  A    between atoms: _442  and  _443
REMARK  165  A    between atoms: _446  and  _448
REMARK  166  A    between atoms: _448  and  _449
REMARK  167  A    between atoms: _448  and  _451
REMARK  168  A    between atoms: _451  and  _452
REMARK  169  A    between atoms: _452  and  _453
REMARK  170  A    between atoms: _456  and  _458
REMARK  171  A    between atoms: _458  and  _459
REMARK  172  A    between atoms: _458  and  _461
REMARK  173  A    between atoms: _461  and  _462
REMARK  174  A    between atoms: _472  and  _474
REMARK  175  A    between atoms: _474  and  _475
REMARK  176  A    between atoms: _474  and  _477
REMARK  177  A    between atoms: _477  and  _478
REMARK  178  A    between atoms: _478  and  _479
REMARK  179  A    between atoms: _479  and  _480
REMARK  180  A    between atoms: _480  and  _481
REMARK  181  A    between atoms: _485  and  _487
REMARK  182  A    between atoms: _487  and  _488
REMARK  183  A    between atoms: _487  and  _490
REMARK  184  A    between atoms: _490  and  _491
REMARK  185  A    between atoms: _497  and  _499
REMARK  186  A    between atoms: _499  and  _500
REMARK  187  A    between atoms: _499  and  _502
REMARK  188  A    between atoms: _502  and  _503
REMARK  189  A    between atoms: _509  and  _511
REMARK  190  A    between atoms: _511  and  _512
REMARK  191  A    between atoms: _511  and  _514
REMARK  192  A    between atoms: _514  and  _515
REMARK  193  A    between atoms: _515  and  _516
REMARK  194  A    between atoms: _521  and  _523
REMARK  195  A    between atoms: _523  and  _524
REMARK  196  A    between atoms: _527  and  _529
REMARK  197  A    between atoms: _529  and  _530
REMARK  198  A    between atoms: _529  and  _532
REMARK  199  A    between atoms: _532  and  _533
REMARK  200  A    between atoms: _535  and  _537
REMARK  201  A    between atoms: _537  and  _538
REMARK  202  A    between atoms: _540  and  _542
REMARK  203  A    between atoms: _542  and  _543
REMARK  204  A    between atoms: _542  and  _545
REMARK  205  A    between atoms: _545  and  _546
REMARK  206  A    between atoms: _546  and  _547
REMARK  207  A    between atoms: _553  and  _554
REMARK  208  A    between atoms: _559  and  _561
REMARK  209  A    between atoms: _561  and  _562
REMARK  210  A    between atoms: _561  and  _564
REMARK  211  A    between atoms: _564  and  _565
REMARK  212  A    between atoms: _570  and  _571
REMARK  213  A    between atoms: _573  and  _575
REMARK  214  A    between atoms: _575  and  _576
REMARK  215  A    between atoms: _575  and  _578
REMARK  216  A    between atoms: _578  and  _579
REMARK  217  A    between atoms: _579  and  _580
REMARK  218  A    between atoms: _580  and  _581
REMARK  219  A    between atoms: _590  and  _592
REMARK  220  A    between atoms: _592  and  _593
REMARK  221  A    between atoms: _592  and  _595
REMARK  222  A    between atoms: _595  and  _596
REMARK  223  A    between atoms: _601  and  _602
REMARK  224  A    between atoms: _604  and  _606
REMARK  225  A    between atoms: _606  and  _607
REMARK  226  A    between atoms: _606  and  _609
REMARK  227  A    between atoms: _609  and  _610
REMARK  228  A    between atoms: _610  and  _611
REMARK  229  A    between atoms: _614  and  _616
REMARK  230  A    between atoms: _616  and  _617
REMARK  231  A    between atoms: _616  and  _619
REMARK  232  A    between atoms: _619  and  _620
REMARK  233  A    between atoms: _620  and  _621
REMARK  234  A    between atoms: _621  and  _622
REMARK                            x       y       z     vdW  Elec       q    Type
REMARK                         _______ _______ _______ _____ _____    ______ ____
ROOT
ATOM      1  O   HOH     1      -6.288  20.748   1.029  0.00  0.00    +0.000 OA
ENDROOT
TORSDOF 0
REMARK  Name = ../refined-set-2016/4f0c/4f0c_pocket.pdb
REMARK  234 active torsions:
REMARK  status: ('A' for Active; 'I' for Inactive)
REMARK    1  A    between atoms: _1  and  _3
REMARK    2  A    between atoms: _3  and  _4
REMARK    3  A    between atoms: _3  and  _6
REMARK    4  A    between atoms: _6  and  _7
REMARK    5  A    between atoms: _12  and  _14
REMARK    6  A    between atoms: _14  and  _15
REMARK    7  A    between atoms: _14  and  _17
REMARK    8  A    between atoms: _17  and  _18
REMARK    9  A    between atoms: _23  and  _25
REMARK   10  A    between atoms: _25  and  _26
REMARK   11  A    between atoms: _25  and  _28
REMARK   12  A    between atoms: _31  and  _33
REMARK   13  A    between atoms: _33  and  _34
REMARK   14  A    between atoms: _37  and  _38
REMARK   15  A    between atoms: _43  and  _45
REMARK   16  A    between atoms: _45  and  _46
REMARK   17  A    between atoms: _45  and  _48
REMARK   18  A    between atoms: _48  and  _49
REMARK   19  A    between atoms: _54  and  _56
REMARK   20  A    between atoms: _56  and  _57
REMARK   21  A    between atoms: _59  and  _61
REMARK   22  A    between atoms: _61  and  _62
REMARK   23  A    between atoms: _61  and  _64
REMARK   24  A    between atoms: _64  and  _65
REMARK   25  A    between atoms: _75  and  _77
REMARK   26  A    between atoms: _77  and  _78
REMARK   27  A    between atoms: _77  and  _80
REMARK   28  A    between atoms: _80  and  _81
REMARK   29  A    between atoms: _81  and  _82
REMARK   30  A    between atoms: _82  and  _83
REMARK   31  A    between atoms: _83  and  _84
REMARK   32  A    between atoms: _88  and  _90
REMARK   33  A    between atoms: _90  and  _91
REMARK   34  A    between atoms: _90  and  _93
REMARK   35  A    between atoms: _96  and  _98
REMARK   36  A    between atoms: _98  and  _99
REMARK   37  A    between atoms: _98  and  _101
REMARK   38  A    between atoms: _104  and  _106
REMARK   39  A    between atoms: _106  and  _107
REMARK   40  A    between atoms: _106  and  _109
REMARK   41  A    between atoms: _109  and  _110
REMARK   42  A    between atoms: _113  and  _115
REMARK   43  A    between atoms: _115  and  _116
REMARK   44  A    between atoms: _118  and  _120
REMARK   45  A    between atoms: _120  and  _121
REMARK   46  A    between atoms: _120  and  _123
REMARK   47  A    between atoms: _123  and  _124
REMARK   48  A    between atoms: _124  and  _125
REMARK   49  A    between atoms: _125  and  _126
REMARK   50  A    between atoms: _135  and  _137
REMARK   51  A    between atoms: _137  and  _138
REMARK   52  A    between atoms: _137  and  _140
REMARK   53  A    between atoms: _140  and  _141
REMARK   54  A    between atoms: _146  and  _148
REMARK   55  A    between atoms: _148  and  _149
REMARK   56  A    between atoms: _148  and  _151
REMARK   57  A    between atoms: _151  and  _152
REMARK   58  A    between atoms: _152  and  _153
REMARK   59  A    between atoms: _153  and  _154
REMARK   60  A    between atoms: _154  and  _155
REMARK   61  A    between atoms: _159  and  _161
REMARK   62  A    between atoms: _161  and  _162
REMARK   63  A    between atoms: _161  and  _164
REMARK   64  A    between atoms: _164  and  _165
REMARK   65  A    between atoms: _171  and  _173
REMARK   66  A    between atoms: _173  and  _174
REMARK   67  A    between atoms: _173  and  _176
REMARK   68  A    between atoms: _176  and  _177
REMARK   69  A    between atoms: _182  and  _184
REMARK   70  A    between atoms: _184  and  _185
REMARK   71  A    between atoms: _184  and  _187
REMARK   72  A    between atoms: _187  and  _188
REMARK   73  A    between atoms: _193  and  _195
REMARK   74  A    between atoms: _195  and  _196
REMARK   75  A    between atoms: _198  and  _200
REMARK   76  A    between atoms: _200  and  _201
REMARK   77  A    between atoms: _200  and  _203
REMARK   78  A    between atoms: _203  and  _204
REMARK   79  A    between atoms: _204  and  _205
REMARK   80  A    between atoms: _205  and  _206
REMARK   81  A    between atoms: _215  and  _217
REMARK   82  A    between atoms: _217  and  _218
REMARK   83  A    between atoms: _217  and  _220
REMARK   84  A    between atoms: _220  and  _221
REMARK   85  A    between atoms: _225  and  _226
REMARK   86  A    between atoms: _231  and  _233
REMARK   87  A    between atoms: _233  and  _234
REMARK   88  A    between atoms: _237  and  _239
REMARK   89  A    between atoms: _239  and  _240
REMARK   90  A    between atoms: _239  and  _242
REMARK   91  A    between atoms: _242  and  _243
REMARK   92  A    between atoms: _253  and  _255
REMARK   93  A    between atoms: _255  and  _256
REMARK   94  A    between atoms: _255  and  _258
REMARK   95  A    between atoms: _258  and  _259
REMARK   96  A    between atoms: _259  and  _260
REMARK   97  A    between atoms: _263  and  _265
REMARK   98  A    between atoms: _265  and  _266
REMARK   99  A    between atoms: _265  and  _268
REMARK  100  A    between atoms: _268  and  _269
REMARK  101  A    between atoms: _271  and  _273
REMARK  102  A    between atoms: _273  and  _274
REMARK  103  A    between atoms: _273  and  _276
REMARK  104  A    between atoms: _276  and  _277
REMARK  105  A    between atoms: _280  and  _282
REMARK  106  A    between atoms: _282  and  _283
REMARK  107  A    between atoms: _286  and  _288
REMARK  108  A    between atoms: _288  and  _289
REMARK  109  A    between atoms: _288  and  _291
REMARK  110  A    between atoms: _291  and  _292
REMARK  111  A    between atoms: _295  and  _297
REMARK  112  A    between atoms: _297  and  _298
REMARK  113  A    between atoms: _297  and  _300
REMARK  114  A    between atoms: _300  and  _301
REMARK  115  A    between atoms: _301  and  _302
REMARK  116  A    between atoms: _307  and  _309
REMARK  117  A    between atoms: _309  and  _310
REMARK  118  A    between atoms: _313  and  _315
REMARK  119  A    between atoms: _315  and  _316
REMARK  120  A    between atoms: _315  and  _318
REMARK  121  A    between atoms: _318  and  _319
REMARK  122  A    between atoms: _321  and  _323
REMARK  123  A    between atoms: _323  and  _324
REMARK  124  A    between atoms: _326  and  _328
REMARK  125  A    between atoms: _328  and  _329
REMARK  126  A    between atoms: _328  and  _331
REMARK  127  A    between atoms: _331  and  _332
REMARK  128  A    between atoms: _332  and  _333
REMARK  129  A    between atoms: _338  and  _340
REMARK  130  A    between atoms: _340  and  _341
REMARK  131  A    between atoms: _344  and  _345
REMARK  132  A    between atoms: _350  and  _352
REMARK  133  A    between atoms: _352  and  _353
REMARK  134  A    between atoms: _352  and  _355
REMARK  135  A    between atoms: _355  and  _356
REMARK  136  A    between atoms: _361  and  _362
REMARK  137  A    between atoms: _364  and  _366
REMARK  138  A    between atoms: _366  and  _367
REMARK  139  A    between atoms: _366  and  _369
REMARK  140  A    between atoms: _369  and  _370
REMARK  141  A    between atoms: _376  and  _378
REMARK  142  A    between atoms: _378  and  _379
REMARK  143  A    between atoms: _381  and  _383
REMARK  144  A    between atoms: _383  and  _384
REMARK  145  A    between atoms: _383  and  _386
REMARK  146  A    between atoms: _386  and  _387
REMARK  147  A    between atoms: _387  and  _388
REMARK  148  A    between atoms: _393  and  _395
REMARK  149  A    between atoms: _395  and  _396
REMARK  150  A    between atoms: _399  and  _401
REMARK  151  A    between atoms: _401  and  _402
REMARK  152  A    between atoms: _404  and  _406
REMARK  153  A    between atoms: _406  and  _407
REMARK  154  A    between atoms: _406  and  _409
REMARK  155  A    between atoms: _409  and  _410
REMARK  156  A    between atoms: _420  and  _422
REMARK  157  A    between atoms: _422  and  _423
REMARK  158  A    between atoms: _422  and  _425
REMARK  159  A    between atoms: _425  and  _426
REMARK  160  A    between atoms: _432  and  _434
REMARK  161  A    between atoms: _434  and  _435
REMARK  162  A    between atoms: _434  and  _437
REMARK  163  A    between atoms: _440  and  _442
REMARK  164  A    between atoms: _442  and  _443
REMARK  165  A    between atoms: _446  and  _448
REMARK  166  A    between atoms: _448  and  _449
REMARK  167  A    between atoms: _448  and  _451
REMARK  168  A    between atoms: _451  and  _452
REMARK  169  A    between atoms: _452  and  _453
REMARK  170  A    between atoms: _456  and  _458
REMARK  171  A    between atoms: _458  and  _459
REMARK  172  A    between atoms: _458  and  _461
REMARK  173  A    between atoms: _461  and  _462
REMARK  174  A    between atoms: _472  and  _474
REMARK  175  A    between atoms: _474  and  _475
REMARK  176  A    between atoms: _474  and  _477
REMARK  177  A    between atoms: _477  and  _478
REMARK  178  A    between atoms: _478  and  _479
REMARK  179  A    between atoms: _479  and  _480
REMARK  180  A    between atoms: _480  and  _481
REMARK  181  A    between atoms: _485  and  _487
REMARK  182  A    between atoms: _487  and  _488
REMARK  183  A    between atoms: _487  and  _490
REMARK  184  A    between atoms: _490  and  _491
REMARK  185  A    between atoms: _497  and  _499
REMARK  186  A    between atoms: _499  and  _500
REMARK  187  A    between atoms: _499  and  _502
REMARK  188  A    between atoms: _502  and  _503
REMARK  189  A    between atoms: _509  and  _511
REMARK  190  A    between atoms: _511  and  _512
REMARK  191  A    between atoms: _511  and  _514
REMARK  192  A    between atoms: _514  and  _515
REMARK  193  A    between atoms: _515  and  _516
REMARK  194  A    between atoms: _521  and  _523
REMARK  195  A    between atoms: _523  and  _524
REMARK  196  A    between atoms: _527  and  _529
REMARK  197  A    between atoms: _529  and  _530
REMARK  198  A    between atoms: _529  and  _532
REMARK  199  A    between atoms: _532  and  _533
REMARK  200  A    between atoms: _535  and  _537
REMARK  201  A    between atoms: _537  and  _538
REMARK  202  A    between atoms: _540  and  _542
REMARK  203  A    between atoms: _542  and  _543
REMARK  204  A    between atoms: _542  and  _545
REMARK  205  A    between atoms: _545  and  _546
REMARK  206  A    between atoms: _546  and  _547
REMARK  207  A    between atoms: _553  and  _554
REMARK  208  A    between atoms: _559  and  _561
REMARK  209  A    between atoms: _561  and  _562
REMARK  210  A    between atoms: _561  and  _564
REMARK  211  A    between atoms: _564  and  _565
REMARK  212  A    between atoms: _570  and  _571
REMARK  213  A    between atoms: _573  and  _575
REMARK  214  A    between atoms: _575  and  _576
REMARK  215  A    between atoms: _575  and  _578
REMARK  216  A    between atoms: _578  and  _579
REMARK  217  A    between atoms: _579  and  _580
REMARK  218  A    between atoms: _580  and  _581
REMARK  219  A    between atoms: _590  and  _592
REMARK  220  A    between atoms: _592  and  _593
REMARK  221  A    between atoms: _592  and  _595
REMARK  222  A    between atoms: _595  and  _596
REMARK  223  A    between atoms: _601  and  _602
REMARK  224  A    between atoms: _604  and  _606
REMARK  225  A    between atoms: _606  and  _607
REMARK  226  A    between atoms: _606  and  _609
REMARK  227  A    between atoms: _609  and  _610
REMARK  228  A    between atoms: _610  and  _611
REMARK  229  A    between atoms: _614  and  _616
REMARK  230  A    between atoms: _616  and  _617
REMARK  231  A    between atoms: _616  and  _619
REMARK  232  A    between atoms: _619  and  _620
REMARK  233  A    between atoms: _620  and  _621
REMARK  234  A    between atoms: _621  and  _622
REMARK                            x       y       z     vdW  Elec       q    Type
REMARK                         _______ _______ _______ _____ _____    ______ ____
ROOT
ATOM      1  O   HOH     1       1.722  12.032   4.647  0.00  0.00    +0.000 OA
ENDROOT
TORSDOF 0
REMARK  Name = ../refined-set-2016/4f0c/4f0c_pocket.pdb
REMARK  234 active torsions:
REMARK  status: ('A' for Active; 'I' for Inactive)
REMARK    1  A    between atoms: _1  and  _3
REMARK    2  A    between atoms: _3  and  _4
REMARK    3  A    between atoms: _3  and  _6
REMARK    4  A    between atoms: _6  and  _7
REMARK    5  A    between atoms: _12  and  _14
REMARK    6  A    between atoms: _14  and  _15
REMARK    7  A    between atoms: _14  and  _17
REMARK    8  A    between atoms: _17  and  _18
REMARK    9  A    between atoms: _23  and  _25
REMARK   10  A    between atoms: _25  and  _26
REMARK   11  A    between atoms: _25  and  _28
REMARK   12  A    between atoms: _31  and  _33
REMARK   13  A    between atoms: _33  and  _34
REMARK   14  A    between atoms: _37  and  _38
REMARK   15  A    between atoms: _43  and  _45
REMARK   16  A    between atoms: _45  and  _46
REMARK   17  A    between atoms: _45  and  _48
REMARK   18  A    between atoms: _48  and  _49
REMARK   19  A    between atoms: _54  and  _56
REMARK   20  A    between atoms: _56  and  _57
REMARK   21  A    between atoms: _59  and  _61
REMARK   22  A    between atoms: _61  and  _62
REMARK   23  A    between atoms: _61  and  _64
REMARK   24  A    between atoms: _64  and  _65
REMARK   25  A    between atoms: _75  and  _77
REMARK   26  A    between atoms: _77  and  _78
REMARK   27  A    between atoms: _77  and  _80
REMARK   28  A    between atoms: _80  and  _81
REMARK   29  A    between atoms: _81  and  _82
REMARK   30  A    between atoms: _82  and  _83
REMARK   31  A    between atoms: _83  and  _84
REMARK   32  A    between atoms: _88  and  _90
REMARK   33  A    between atoms: _90  and  _91
REMARK   34  A    between atoms: _90  and  _93
REMARK   35  A    between atoms: _96  and  _98
REMARK   36  A    between atoms: _98  and  _99
REMARK   37  A    between atoms: _98  and  _101
REMARK   38  A    between atoms: _104  and  _106
REMARK   39  A    between atoms: _106  and  _107
REMARK   40  A    between atoms: _106  and  _109
REMARK   41  A    between atoms: _109  and  _110
REMARK   42  A    between atoms: _113  and  _115
REMARK   43  A    between atoms: _115  and  _116
REMARK   44  A    between atoms: _118  and  _120
REMARK   45  A    between atoms: _120  and  _121
REMARK   46  A    between atoms: _120  and  _123
REMARK   47  A    between atoms: _123  and  _124
REMARK   48  A    between atoms: _124  and  _125
REMARK   49  A    between atoms: _125  and  _126
REMARK   50  A    between atoms: _135  and  _137
REMARK   51  A    between atoms: _137  and  _138
REMARK   52  A    between atoms: _137  and  _140
REMARK   53  A    between atoms: _140  and  _141
REMARK   54  A    between atoms: _146  and  _148
REMARK   55  A    between atoms: _148  and  _149
REMARK   56  A    between atoms: _148  and  _151
REMARK   57  A    between atoms: _151  and  _152
REMARK   58  A    between atoms: _152  and  _153
REMARK   59  A    between atoms: _153  and  _154
REMARK   60  A    between atoms: _154  and  _155
REMARK   61  A    between atoms: _159  and  _161
REMARK   62  A    between atoms: _161  and  _162
REMARK   63  A    between atoms: _161  and  _164
REMARK   64  A    between atoms: _164  and  _165
REMARK   65  A    between atoms: _171  and  _173
REMARK   66  A    between atoms: _173  and  _174
REMARK   67  A    between atoms: _173  and  _176
REMARK   68  A    between atoms: _176  and  _177
REMARK   69  A    between atoms: _182  and  _184
REMARK   70  A    between atoms: _184  and  _185
REMARK   71  A    between atoms: _184  and  _187
REMARK   72  A    between atoms: _187  and  _188
REMARK   73  A    between atoms: _193  and  _195
REMARK   74  A    between atoms: _195  and  _196
REMARK   75  A    between atoms: _198  and  _200
REMARK   76  A    between atoms: _200  and  _201
REMARK   77  A    between atoms: _200  and  _203
REMARK   78  A    between atoms: _203  and  _204
REMARK   79  A    between atoms: _204  and  _205
REMARK   80  A    between atoms: _205  and  _206
REMARK   81  A    between atoms: _215  and  _217
REMARK   82  A    between atoms: _217  and  _218
REMARK   83  A    between atoms: _217  and  _220
REMARK   84  A    between atoms: _220  and  _221
REMARK   85  A    between atoms: _225  and  _226
REMARK   86  A    between atoms: _231  and  _233
REMARK   87  A    between atoms: _233  and  _234
REMARK   88  A    between atoms: _237  and  _239
REMARK   89  A    between atoms: _239  and  _240
REMARK   90  A    between atoms: _239  and  _242
REMARK   91  A    between atoms: _242  and  _243
REMARK   92  A    between atoms: _253  and  _255
REMARK   93  A    between atoms: _255  and  _256
REMARK   94  A    between atoms: _255  and  _258
REMARK   95  A    between atoms: _258  and  _259
REMARK   96  A    between atoms: _259  and  _260
REMARK   97  A    between atoms: _263  and  _265
REMARK   98  A    between atoms: _265  and  _266
REMARK   99  A    between atoms: _265  and  _268
REMARK  100  A    between atoms: _268  and  _269
REMARK  101  A    between atoms: _271  and  _273
REMARK  102  A    between atoms: _273  and  _274
REMARK  103  A    between atoms: _273  and  _276
REMARK  104  A    between atoms: _276  and  _277
REMARK  105  A    between atoms: _280  and  _282
REMARK  106  A    between atoms: _282  and  _283
REMARK  107  A    between atoms: _286  and  _288
REMARK  108  A    between atoms: _288  and  _289
REMARK  109  A    between atoms: _288  and  _291
REMARK  110  A    between atoms: _291  and  _292
REMARK  111  A    between atoms: _295  and  _297
REMARK  112  A    between atoms: _297  and  _298
REMARK  113  A    between atoms: _297  and  _300
REMARK  114  A    between atoms: _300  and  _301
REMARK  115  A    between atoms: _301  and  _302
REMARK  116  A    between atoms: _307  and  _309
REMARK  117  A    between atoms: _309  and  _310
REMARK  118  A    between atoms: _313  and  _315
REMARK  119  A    between atoms: _315  and  _316
REMARK  120  A    between atoms: _315  and  _318
REMARK  121  A    between atoms: _318  and  _319
REMARK  122  A    between atoms: _321  and  _323
REMARK  123  A    between atoms: _323  and  _324
REMARK  124  A    between atoms: _326  and  _328
REMARK  125  A    between atoms: _328  and  _329
REMARK  126  A    between atoms: _328  and  _331
REMARK  127  A    between atoms: _331  and  _332
REMARK  128  A    between atoms: _332  and  _333
REMARK  129  A    between atoms: _338  and  _340
REMARK  130  A    between atoms: _340  and  _341
REMARK  131  A    between atoms: _344  and  _345
REMARK  132  A    between atoms: _350  and  _352
REMARK  133  A    between atoms: _352  and  _353
REMARK  134  A    between atoms: _352  and  _355
REMARK  135  A    between atoms: _355  and  _356
REMARK  136  A    between atoms: _361  and  _362
REMARK  137  A    between atoms: _364  and  _366
REMARK  138  A    between atoms: _366  and  _367
REMARK  139  A    between atoms: _366  and  _369
REMARK  140  A    between atoms: _369  and  _370
REMARK  141  A    between atoms: _376  and  _378
REMARK  142  A    between atoms: _378  and  _379
REMARK  143  A    between atoms: _381  and  _383
REMARK  144  A    between atoms: _383  and  _384
REMARK  145  A    between atoms: _383  and  _386
REMARK  146  A    between atoms: _386  and  _387
REMARK  147  A    between atoms: _387  and  _388
REMARK  148  A    between atoms: _393  and  _395
REMARK  149  A    between atoms: _395  and  _396
REMARK  150  A    between atoms: _399  and  _401
REMARK  151  A    between atoms: _401  and  _402
REMARK  152  A    between atoms: _404  and  _406
REMARK  153  A    between atoms: _406  and  _407
REMARK  154  A    between atoms: _406  and  _409
REMARK  155  A    between atoms: _409  and  _410
REMARK  156  A    between atoms: _420  and  _422
REMARK  157  A    between atoms: _422  and  _423
REMARK  158  A    between atoms: _422  and  _425
REMARK  159  A    between atoms: _425  and  _426
REMARK  160  A    between atoms: _432  and  _434
REMARK  161  A    between atoms: _434  and  _435
REMARK  162  A    between atoms: _434  and  _437
REMARK  163  A    between atoms: _440  and  _442
REMARK  164  A    between atoms: _442  and  _443
REMARK  165  A    between atoms: _446  and  _448
REMARK  166  A    between atoms: _448  and  _449
REMARK  167  A    between atoms: _448  and  _451
REMARK  168  A    between atoms: _451  and  _452
REMARK  169  A    between atoms: _452  and  _453
REMARK  170  A    between atoms: _456  and  _458
REMARK  171  A    between atoms: _458  and  _459
REMARK  172  A    between atoms: _458  and  _461
REMARK  173  A    between atoms: _461  and  _462
REMARK  174  A    between atoms: _472  and  _474
REMARK  175  A    between atoms: _474  and  _475
REMARK  176  A    between atoms: _474  and  _477
REMARK  177  A    between atoms: _477  and  _478
REMARK  178  A    between atoms: _478  and  _479
REMARK  179  A    between atoms: _479  and  _480
REMARK  180  A    between atoms: _480  and  _481
REMARK  181  A    between atoms: _485  and  _487
REMARK  182  A    between atoms: _487  and  _488
REMARK  183  A    between atoms: _487  and  _490
REMARK  184  A    between atoms: _490  and  _491
REMARK  185  A    between atoms: _497  and  _499
REMARK  186  A    between atoms: _499  and  _500
REMARK  187  A    between atoms: _499  and  _502
REMARK  188  A    between atoms: _502  and  _503
REMARK  189  A    between atoms: _509  and  _511
REMARK  190  A    between atoms: _511  and  _512
REMARK  191  A    between atoms: _511  and  _514
REMARK  192  A    between atoms: _514  and  _515
REMARK  193  A    between atoms: _515  and  _516
REMARK  194  A    between atoms: _521  and  _523
REMARK  195  A    between atoms: _523  and  _524
REMARK  196  A    between atoms: _527  and  _529
REMARK  197  A    between atoms: _529  and  _530
REMARK  198  A    between atoms: _529  and  _532
REMARK  199  A    between atoms: _532  and  _533
REMARK  200  A    between atoms: _535  and  _537
REMARK  201  A    between atoms: _537  and  _538
REMARK  202  A    between atoms: _540  and  _542
REMARK  203  A    between atoms: _542  and  _543
REMARK  204  A    between atoms: _542  and  _545
REMARK  205  A    between atoms: _545  and  _546
REMARK  206  A    between atoms: _546  and  _547
REMARK  207  A    between atoms: _553  and  _554
REMARK  208  A    between atoms: _559  and  _561
REMARK  209  A    between atoms: _561  and  _562
REMARK  210  A    between atoms: _561  and  _564
REMARK  211  A    between atoms: _564  and  _565
REMARK  212  A    between atoms: _570  and  _571
REMARK  213  A    between atoms: _573  and  _575
REMARK  214  A    between atoms: _575  and  _576
REMARK  215  A    between atoms: _575  and  _578
REMARK  216  A    between atoms: _578  and  _579
REMARK  217  A    between atoms: _579  and  _580
REMARK  218  A    between atoms: _580  and  _581
REMARK  219  A    between atoms: _590  and  _592
REMARK  220  A    between atoms: _592  and  _593
REMARK  221  A    between atoms: _592  and  _595
REMARK  222  A    between atoms: _595  and  _596
REMARK  223  A    between atoms: _601  and  _602
REMARK  224  A    between atoms: _604  and  _606
REMARK  225  A    between atoms: _606  and  _607
REMARK  226  A    between atoms: _606  and  _609
REMARK  227  A    between atoms: _609  and  _610
REMARK  228  A    between atoms: _610  and  _611
REMARK  229  A    between atoms: _614  and  _616
REMARK  230  A    between atoms: _616  and  _617
REMARK  231  A    between atoms: _616  and  _619
REMARK  232  A    between atoms: _619  and  _620
REMARK  233  A    between atoms: _620  and  _621
REMARK  234  A    between atoms: _621  and  _622
REMARK                            x       y       z     vdW  Elec       q    Type
REMARK                         _______ _______ _______ _____ _____    ______ ____
ROOT
ATOM      1  O   HOH     1       1.733  10.505   8.591  0.00  0.00    +0.000 OA
ENDROOT
TORSDOF 0
REMARK  Name = ../refined-set-2016/4f0c/4f0c_pocket.pdb
REMARK  234 active torsions:
REMARK  status: ('A' for Active; 'I' for Inactive)
REMARK    1  A    between atoms: _1  and  _3
REMARK    2  A    between atoms: _3  and  _4
REMARK    3  A    between atoms: _3  and  _6
REMARK    4  A    between atoms: _6  and  _7
REMARK    5  A    between atoms: _12  and  _14
REMARK    6  A    between atoms: _14  and  _15
REMARK    7  A    between atoms: _14  and  _17
REMARK    8  A    between atoms: _17  and  _18
REMARK    9  A    between atoms: _23  and  _25
REMARK   10  A    between atoms: _25  and  _26
REMARK   11  A    between atoms: _25  and  _28
REMARK   12  A    between atoms: _31  and  _33
REMARK   13  A    between atoms: _33  and  _34
REMARK   14  A    between atoms: _37  and  _38
REMARK   15  A    between atoms: _43  and  _45
REMARK   16  A    between atoms: _45  and  _46
REMARK   17  A    between atoms: _45  and  _48
REMARK   18  A    between atoms: _48  and  _49
REMARK   19  A    between atoms: _54  and  _56
REMARK   20  A    between atoms: _56  and  _57
REMARK   21  A    between atoms: _59  and  _61
REMARK   22  A    between atoms: _61  and  _62
REMARK   23  A    between atoms: _61  and  _64
REMARK   24  A    between atoms: _64  and  _65
REMARK   25  A    between atoms: _75  and  _77
REMARK   26  A    between atoms: _77  and  _78
REMARK   27  A    between atoms: _77  and  _80
REMARK   28  A    between atoms: _80  and  _81
REMARK   29  A    between atoms: _81  and  _82
REMARK   30  A    between atoms: _82  and  _83
REMARK   31  A    between atoms: _83  and  _84
REMARK   32  A    between atoms: _88  and  _90
REMARK   33  A    between atoms: _90  and  _91
REMARK   34  A    between atoms: _90  and  _93
REMARK   35  A    between atoms: _96  and  _98
REMARK   36  A    between atoms: _98  and  _99
REMARK   37  A    between atoms: _98  and  _101
REMARK   38  A    between atoms: _104  and  _106
REMARK   39  A    between atoms: _106  and  _107
REMARK   40  A    between atoms: _106  and  _109
REMARK   41  A    between atoms: _109  and  _110
REMARK   42  A    between atoms: _113  and  _115
REMARK   43  A    between atoms: _115  and  _116
REMARK   44  A    between atoms: _118  and  _120
REMARK   45  A    between atoms: _120  and  _121
REMARK   46  A    between atoms: _120  and  _123
REMARK   47  A    between atoms: _123  and  _124
REMARK   48  A    between atoms: _124  and  _125
REMARK   49  A    between atoms: _125  and  _126
REMARK   50  A    between atoms: _135  and  _137
REMARK   51  A    between atoms: _137  and  _138
REMARK   52  A    between atoms: _137  and  _140
REMARK   53  A    between atoms: _140  and  _141
REMARK   54  A    between atoms: _146  and  _148
REMARK   55  A    between atoms: _148  and  _149
REMARK   56  A    between atoms: _148  and  _151
REMARK   57  A    between atoms: _151  and  _152
REMARK   58  A    between atoms: _152  and  _153
REMARK   59  A    between atoms: _153  and  _154
REMARK   60  A    between atoms: _154  and  _155
REMARK   61  A    between atoms: _159  and  _161
REMARK   62  A    between atoms: _161  and  _162
REMARK   63  A    between atoms: _161  and  _164
REMARK   64  A    between atoms: _164  and  _165
REMARK   65  A    between atoms: _171  and  _173
REMARK   66  A    between atoms: _173  and  _174
REMARK   67  A    between atoms: _173  and  _176
REMARK   68  A    between atoms: _176  and  _177
REMARK   69  A    between atoms: _182  and  _184
REMARK   70  A    between atoms: _184  and  _185
REMARK   71  A    between atoms: _184  and  _187
REMARK   72  A    between atoms: _187  and  _188
REMARK   73  A    between atoms: _193  and  _195
REMARK   74  A    between atoms: _195  and  _196
REMARK   75  A    between atoms: _198  and  _200
REMARK   76  A    between atoms: _200  and  _201
REMARK   77  A    between atoms: _200  and  _203
REMARK   78  A    between atoms: _203  and  _204
REMARK   79  A    between atoms: _204  and  _205
REMARK   80  A    between atoms: _205  and  _206
REMARK   81  A    between atoms: _215  and  _217
REMARK   82  A    between atoms: _217  and  _218
REMARK   83  A    between atoms: _217  and  _220
REMARK   84  A    between atoms: _220  and  _221
REMARK   85  A    between atoms: _225  and  _226
REMARK   86  A    between atoms: _231  and  _233
REMARK   87  A    between atoms: _233  and  _234
REMARK   88  A    between atoms: _237  and  _239
REMARK   89  A    between atoms: _239  and  _240
REMARK   90  A    between atoms: _239  and  _242
REMARK   91  A    between atoms: _242  and  _243
REMARK   92  A    between atoms: _253  and  _255
REMARK   93  A    between atoms: _255  and  _256
REMARK   94  A    between atoms: _255  and  _258
REMARK   95  A    between atoms: _258  and  _259
REMARK   96  A    between atoms: _259  and  _260
REMARK   97  A    between atoms: _263  and  _265
REMARK   98  A    between atoms: _265  and  _266
REMARK   99  A    between atoms: _265  and  _268
REMARK  100  A    between atoms: _268  and  _269
REMARK  101  A    between atoms: _271  and  _273
REMARK  102  A    between atoms: _273  and  _274
REMARK  103  A    between atoms: _273  and  _276
REMARK  104  A    between atoms: _276  and  _277
REMARK  105  A    between atoms: _280  and  _282
REMARK  106  A    between atoms: _282  and  _283
REMARK  107  A    between atoms: _286  and  _288
REMARK  108  A    between atoms: _288  and  _289
REMARK  109  A    between atoms: _288  and  _291
REMARK  110  A    between atoms: _291  and  _292
REMARK  111  A    between atoms: _295  and  _297
REMARK  112  A    between atoms: _297  and  _298
REMARK  113  A    between atoms: _297  and  _300
REMARK  114  A    between atoms: _300  and  _301
REMARK  115  A    between atoms: _301  and  _302
REMARK  116  A    between atoms: _307  and  _309
REMARK  117  A    between atoms: _309  and  _310
REMARK  118  A    between atoms: _313  and  _315
REMARK  119  A    between atoms: _315  and  _316
REMARK  120  A    between atoms: _315  and  _318
REMARK  121  A    between atoms: _318  and  _319
REMARK  122  A    between atoms: _321  and  _323
REMARK  123  A    between atoms: _323  and  _324
REMARK  124  A    between atoms: _326  and  _328
REMARK  125  A    between atoms: _328  and  _329
REMARK  126  A    between atoms: _328  and  _331
REMARK  127  A    between atoms: _331  and  _332
REMARK  128  A    between atoms: _332  and  _333
REMARK  129  A    between atoms: _338  and  _340
REMARK  130  A    between atoms: _340  and  _341
REMARK  131  A    between atoms: _344  and  _345
REMARK  132  A    between atoms: _350  and  _352
REMARK  133  A    between atoms: _352  and  _353
REMARK  134  A    between atoms: _352  and  _355
REMARK  135  A    between atoms: _355  and  _356
REMARK  136  A    between atoms: _361  and  _362
REMARK  137  A    between atoms: _364  and  _366
REMARK  138  A    between atoms: _366  and  _367
REMARK  139  A    between atoms: _366  and  _369
REMARK  140  A    between atoms: _369  and  _370
REMARK  141  A    between atoms: _376  and  _378
REMARK  142  A    between atoms: _378  and  _379
REMARK  143  A    between atoms: _381  and  _383
REMARK  144  A    between atoms: _383  and  _384
REMARK  145  A    between atoms: _383  and  _386
REMARK  146  A    between atoms: _386  and  _387
REMARK  147  A    between atoms: _387  and  _388
REMARK  148  A    between atoms: _393  and  _395
REMARK  149  A    between atoms: _395  and  _396
REMARK  150  A    between atoms: _399  and  _401
REMARK  151  A    between atoms: _401  and  _402
REMARK  152  A    between atoms: _404  and  _406
REMARK  153  A    between atoms: _406  and  _407
REMARK  154  A    between atoms: _406  and  _409
REMARK  155  A    between atoms: _409  and  _410
REMARK  156  A    between atoms: _420  and  _422
REMARK  157  A    between atoms: _422  and  _423
REMARK  158  A    between atoms: _422  and  _425
REMARK  159  A    between atoms: _425  and  _426
REMARK  160  A    between atoms: _432  and  _434
REMARK  161  A    between atoms: _434  and  _435
REMARK  162  A    between atoms: _434  and  _437
REMARK  163  A    between atoms: _440  and  _442
REMARK  164  A    between atoms: _442  and  _443
REMARK  165  A    between atoms: _446  and  _448
REMARK  166  A    between atoms: _448  and  _449
REMARK  167  A    between atoms: _448  and  _451
REMARK  168  A    between atoms: _451  and  _452
REMARK  169  A    between atoms: _452  and  _453
REMARK  170  A    between atoms: _456  and  _458
REMARK  171  A    between atoms: _458  and  _459
REMARK  172  A    between atoms: _458  and  _461
REMARK  173  A    between atoms: _461  and  _462
REMARK  174  A    between atoms: _472  and  _474
REMARK  175  A    between atoms: _474  and  _475
REMARK  176  A    between atoms: _474  and  _477
REMARK  177  A    between atoms: _477  and  _478
REMARK  178  A    between atoms: _478  and  _479
REMARK  179  A    between atoms: _479  and  _480
REMARK  180  A    between atoms: _480  and  _481
REMARK  181  A    between atoms: _485  and  _487
REMARK  182  A    between atoms: _487  and  _488
REMARK  183  A    between atoms: _487  and  _490
REMARK  184  A    between atoms: _490  and  _491
REMARK  185  A    between atoms: _497  and  _499
REMARK  186  A    between atoms: _499  and  _500
REMARK  187  A    between atoms: _499  and  _502
REMARK  188  A    between atoms: _502  and  _503
REMARK  189  A    between atoms: _509  and  _511
REMARK  190  A    between atoms: _511  and  _512
REMARK  191  A    between atoms: _511  and  _514
REMARK  192  A    between atoms: _514  and  _515
REMARK  193  A    between atoms: _515  and  _516
REMARK  194  A    between atoms: _521  and  _523
REMARK  195  A    between atoms: _523  and  _524
REMARK  196  A    between atoms: _527  and  _529
REMARK  197  A    between atoms: _529  and  _530
REMARK  198  A    between atoms: _529  and  _532
REMARK  199  A    between atoms: _532  and  _533
REMARK  200  A    between atoms: _535  and  _537
REMARK  201  A    between atoms: _537  and  _538
REMARK  202  A    between atoms: _540  and  _542
REMARK  203  A    between atoms: _542  and  _543
REMARK  204  A    between atoms: _542  and  _545
REMARK  205  A    between atoms: _545  and  _546
REMARK  206  A    between atoms: _546  and  _547
REMARK  207  A    between atoms: _553  and  _554
REMARK  208  A    between atoms: _559  and  _561
REMARK  209  A    between atoms: _561  and  _562
REMARK  210  A    between atoms: _561  and  _564
REMARK  211  A    between atoms: _564  and  _565
REMARK  212  A    between atoms: _570  and  _571
REMARK  213  A    between atoms: _573  and  _575
REMARK  214  A    between atoms: _575  and  _576
REMARK  215  A    between atoms: _575  and  _578
REMARK  216  A    between atoms: _578  and  _579
REMARK  217  A    between atoms: _579  and  _580
REMARK  218  A    between atoms: _580  and  _581
REMARK  219  A    between atoms: _590  and  _592
REMARK  220  A    between atoms: _592  and  _593
REMARK  221  A    between atoms: _592  and  _595
REMARK  222  A    between atoms: _595  and  _596
REMARK  223  A    between atoms: _601  and  _602
REMARK  224  A    between atoms: _604  and  _606
REMARK  225  A    between atoms: _606  and  _607
REMARK  226  A    between atoms: _606  and  _609
REMARK  227  A    between atoms: _609  and  _610
REMARK  228  A    between atoms: _610  and  _611
REMARK  229  A    between atoms: _614  and  _616
REMARK  230  A    between atoms: _616  and  _617
REMARK  231  A    between atoms: _616  and  _619
REMARK  232  A    between atoms: _619  and  _620
REMARK  233  A    between atoms: _620  and  _621
REMARK  234  A    between atoms: _621  and  _622
REMARK                            x       y       z     vdW  Elec       q    Type
REMARK                         _______ _______ _______ _____ _____    ______ ____
ROOT
ATOM      1  O   HOH     1      -2.141  11.736   1.163  0.00  0.00    +0.000 OA
ENDROOT
TORSDOF 0
REMARK  Name = ../refined-set-2016/4f0c/4f0c_pocket.pdb
REMARK  234 active torsions:
REMARK  status: ('A' for Active; 'I' for Inactive)
REMARK    1  A    between atoms: _1  and  _3
REMARK    2  A    between atoms: _3  and  _4
REMARK    3  A    between atoms: _3  and  _6
REMARK    4  A    between atoms: _6  and  _7
REMARK    5  A    between atoms: _12  and  _14
REMARK    6  A    between atoms: _14  and  _15
REMARK    7  A    between atoms: _14  and  _17
REMARK    8  A    between atoms: _17  and  _18
REMARK    9  A    between atoms: _23  and  _25
REMARK   10  A    between atoms: _25  and  _26
REMARK   11  A    between atoms: _25  and  _28
REMARK   12  A    between atoms: _31  and  _33
REMARK   13  A    between atoms: _33  and  _34
REMARK   14  A    between atoms: _37  and  _38
REMARK   15  A    between atoms: _43  and  _45
REMARK   16  A    between atoms: _45  and  _46
REMARK   17  A    between atoms: _45  and  _48
REMARK   18  A    between atoms: _48  and  _49
REMARK   19  A    between atoms: _54  and  _56
REMARK   20  A    between atoms: _56  and  _57
REMARK   21  A    between atoms: _59  and  _61
REMARK   22  A    between atoms: _61  and  _62
REMARK   23  A    between atoms: _61  and  _64
REMARK   24  A    between atoms: _64  and  _65
REMARK   25  A    between atoms: _75  and  _77
REMARK   26  A    between atoms: _77  and  _78
REMARK   27  A    between atoms: _77  and  _80
REMARK   28  A    between atoms: _80  and  _81
REMARK   29  A    between atoms: _81  and  _82
REMARK   30  A    between atoms: _82  and  _83
REMARK   31  A    between atoms: _83  and  _84
REMARK   32  A    between atoms: _88  and  _90
REMARK   33  A    between atoms: _90  and  _91
REMARK   34  A    between atoms: _90  and  _93
REMARK   35  A    between atoms: _96  and  _98
REMARK   36  A    between atoms: _98  and  _99
REMARK   37  A    between atoms: _98  and  _101
REMARK   38  A    between atoms: _104  and  _106
REMARK   39  A    between atoms: _106  and  _107
REMARK   40  A    between atoms: _106  and  _109
REMARK   41  A    between atoms: _109  and  _110
REMARK   42  A    between atoms: _113  and  _115
REMARK   43  A    between atoms: _115  and  _116
REMARK   44  A    between atoms: _118  and  _120
REMARK   45  A    between atoms: _120  and  _121
REMARK   46  A    between atoms: _120  and  _123
REMARK   47  A    between atoms: _123  and  _124
REMARK   48  A    between atoms: _124  and  _125
REMARK   49  A    between atoms: _125  and  _126
REMARK   50  A    between atoms: _135  and  _137
REMARK   51  A    between atoms: _137  and  _138
REMARK   52  A    between atoms: _137  and  _140
REMARK   53  A    between atoms: _140  and  _141
REMARK   54  A    between atoms: _146  and  _148
REMARK   55  A    between atoms: _148  and  _149
REMARK   56  A    between atoms: _148  and  _151
REMARK   57  A    between atoms: _151  and  _152
REMARK   58  A    between atoms: _152  and  _153
REMARK   59  A    between atoms: _153  and  _154
REMARK   60  A    between atoms: _154  and  _155
REMARK   61  A    between atoms: _159  and  _161
REMARK   62  A    between atoms: _161  and  _162
REMARK   63  A    between atoms: _161  and  _164
REMARK   64  A    between atoms: _164  and  _165
REMARK   65  A    between atoms: _171  and  _173
REMARK   66  A    between atoms: _173  and  _174
REMARK   67  A    between atoms: _173  and  _176
REMARK   68  A    between atoms: _176  and  _177
REMARK   69  A    between atoms: _182  and  _184
REMARK   70  A    between atoms: _184  and  _185
REMARK   71  A    between atoms: _184  and  _187
REMARK   72  A    between atoms: _187  and  _188
REMARK   73  A    between atoms: _193  and  _195
REMARK   74  A    between atoms: _195  and  _196
REMARK   75  A    between atoms: _198  and  _200
REMARK   76  A    between atoms: _200  and  _201
REMARK   77  A    between atoms: _200  and  _203
REMARK   78  A    between atoms: _203  and  _204
REMARK   79  A    between atoms: _204  and  _205
REMARK   80  A    between atoms: _205  and  _206
REMARK   81  A    between atoms: _215  and  _217
REMARK   82  A    between atoms: _217  and  _218
REMARK   83  A    between atoms: _217  and  _220
REMARK   84  A    between atoms: _220  and  _221
REMARK   85  A    between atoms: _225  and  _226
REMARK   86  A    between atoms: _231  and  _233
REMARK   87  A    between atoms: _233  and  _234
REMARK   88  A    between atoms: _237  and  _239
REMARK   89  A    between atoms: _239  and  _240
REMARK   90  A    between atoms: _239  and  _242
REMARK   91  A    between atoms: _242  and  _243
REMARK   92  A    between atoms: _253  and  _255
REMARK   93  A    between atoms: _255  and  _256
REMARK   94  A    between atoms: _255  and  _258
REMARK   95  A    between atoms: _258  and  _259
REMARK   96  A    between atoms: _259  and  _260
REMARK   97  A    between atoms: _263  and  _265
REMARK   98  A    between atoms: _265  and  _266
REMARK   99  A    between atoms: _265  and  _268
REMARK  100  A    between atoms: _268  and  _269
REMARK  101  A    between atoms: _271  and  _273
REMARK  102  A    between atoms: _273  and  _274
REMARK  103  A    between atoms: _273  and  _276
REMARK  104  A    between atoms: _276  and  _277
REMARK  105  A    between atoms: _280  and  _282
REMARK  106  A    between atoms: _282  and  _283
REMARK  107  A    between atoms: _286  and  _288
REMARK  108  A    between atoms: _288  and  _289
REMARK  109  A    between atoms: _288  and  _291
REMARK  110  A    between atoms: _291  and  _292
REMARK  111  A    between atoms: _295  and  _297
REMARK  112  A    between atoms: _297  and  _298
REMARK  113  A    between atoms: _297  and  _300
REMARK  114  A    between atoms: _300  and  _301
REMARK  115  A    between atoms: _301  and  _302
REMARK  116  A    between atoms: _307  and  _309
REMARK  117  A    between atoms: _309  and  _310
REMARK  118  A    between atoms: _313  and  _315
REMARK  119  A    between atoms: _315  and  _316
REMARK  120  A    between atoms: _315  and  _318
REMARK  121  A    between atoms: _318  and  _319
REMARK  122  A    between atoms: _321  and  _323
REMARK  123  A    between atoms: _323  and  _324
REMARK  124  A    between atoms: _326  and  _328
REMARK  125  A    between atoms: _328  and  _329
REMARK  126  A    between atoms: _328  and  _331
REMARK  127  A    between atoms: _331  and  _332
REMARK  128  A    between atoms: _332  and  _333
REMARK  129  A    between atoms: _338  and  _340
REMARK  130  A    between atoms: _340  and  _341
REMARK  131  A    between atoms: _344  and  _345
REMARK  132  A    between atoms: _350  and  _352
REMARK  133  A    between atoms: _352  and  _353
REMARK  134  A    between atoms: _352  and  _355
REMARK  135  A    between atoms: _355  and  _356
REMARK  136  A    between atoms: _361  and  _362
REMARK  137  A    between atoms: _364  and  _366
REMARK  138  A    between atoms: _366  and  _367
REMARK  139  A    between atoms: _366  and  _369
REMARK  140  A    between atoms: _369  and  _370
REMARK  141  A    between atoms: _376  and  _378
REMARK  142  A    between atoms: _378  and  _379
REMARK  143  A    between atoms: _381  and  _383
REMARK  144  A    between atoms: _383  and  _384
REMARK  145  A    between atoms: _383  and  _386
REMARK  146  A    between atoms: _386  and  _387
REMARK  147  A    between atoms: _387  and  _388
REMARK  148  A    between atoms: _393  and  _395
REMARK  149  A    between atoms: _395  and  _396
REMARK  150  A    between atoms: _399  and  _401
REMARK  151  A    between atoms: _401  and  _402
REMARK  152  A    between atoms: _404  and  _406
REMARK  153  A    between atoms: _406  and  _407
REMARK  154  A    between atoms: _406  and  _409
REMARK  155  A    between atoms: _409  and  _410
REMARK  156  A    between atoms: _420  and  _422
REMARK  157  A    between atoms: _422  and  _423
REMARK  158  A    between atoms: _422  and  _425
REMARK  159  A    between atoms: _425  and  _426
REMARK  160  A    between atoms: _432  and  _434
REMARK  161  A    between atoms: _434  and  _435
REMARK  162  A    between atoms: _434  and  _437
REMARK  163  A    between atoms: _440  and  _442
REMARK  164  A    between atoms: _442  and  _443
REMARK  165  A    between atoms: _446  and  _448
REMARK  166  A    between atoms: _448  and  _449
REMARK  167  A    between atoms: _448  and  _451
REMARK  168  A    between atoms: _451  and  _452
REMARK  169  A    between atoms: _452  and  _453
REMARK  170  A    between atoms: _456  and  _458
REMARK  171  A    between atoms: _458  and  _459
REMARK  172  A    between atoms: _458  and  _461
REMARK  173  A    between atoms: _461  and  _462
REMARK  174  A    between atoms: _472  and  _474
REMARK  175  A    between atoms: _474  and  _475
REMARK  176  A    between atoms: _474  and  _477
REMARK  177  A    between atoms: _477  and  _478
REMARK  178  A    between atoms: _478  and  _479
REMARK  179  A    between atoms: _479  and  _480
REMARK  180  A    between atoms: _480  and  _481
REMARK  181  A    between atoms: _485  and  _487
REMARK  182  A    between atoms: _487  and  _488
REMARK  183  A    between atoms: _487  and  _490
REMARK  184  A    between atoms: _490  and  _491
REMARK  185  A    between atoms: _497  and  _499
REMARK  186  A    between atoms: _499  and  _500
REMARK  187  A    between atoms: _499  and  _502
REMARK  188  A    between atoms: _502  and  _503
REMARK  189  A    between atoms: _509  and  _511
REMARK  190  A    between atoms: _511  and  _512
REMARK  191  A    between atoms: _511  and  _514
REMARK  192  A    between atoms: _514  and  _515
REMARK  193  A    between atoms: _515  and  _516
REMARK  194  A    between atoms: _521  and  _523
REMARK  195  A    between atoms: _523  and  _524
REMARK  196  A    between atoms: _527  and  _529
REMARK  197  A    between atoms: _529  and  _530
REMARK  198  A    between atoms: _529  and  _532
REMARK  199  A    between atoms: _532  and  _533
REMARK  200  A    between atoms: _535  and  _537
REMARK  201  A    between atoms: _537  and  _538
REMARK  202  A    between atoms: _540  and  _542
REMARK  203  A    between atoms: _542  and  _543
REMARK  204  A    between atoms: _542  and  _545
REMARK  205  A    between atoms: _545  and  _546
REMARK  206  A    between atoms: _546  and  _547
REMARK  207  A    between atoms: _553  and  _554
REMARK  208  A    between atoms: _559  and  _561
REMARK  209  A    between atoms: _561  and  _562
REMARK  210  A    between atoms: _561  and  _564
REMARK  211  A    between atoms: _564  and  _565
REMARK  212  A    between atoms: _570  and  _571
REMARK  213  A    between atoms: _573  and  _575
REMARK  214  A    between atoms: _575  and  _576
REMARK  215  A    between atoms: _575  and  _578
REMARK  216  A    between atoms: _578  and  _579
REMARK  217  A    between atoms: _579  and  _580
REMARK  218  A    between atoms: _580  and  _581
REMARK  219  A    between atoms: _590  and  _592
REMARK  220  A    between atoms: _592  and  _593
REMARK  221  A    between atoms: _592  and  _595
REMARK  222  A    between atoms: _595  and  _596
REMARK  223  A    between atoms: _601  and  _602
REMARK  224  A    between atoms: _604  and  _606
REMARK  225  A    between atoms: _606  and  _607
REMARK  226  A    between atoms: _606  and  _609
REMARK  227  A    between atoms: _609  and  _610
REMARK  228  A    between atoms: _610  and  _611
REMARK  229  A    between atoms: _614  and  _616
REMARK  230  A    between atoms: _616  and  _617
REMARK  231  A    between atoms: _616  and  _619
REMARK  232  A    between atoms: _619  and  _620
REMARK  233  A    between atoms: _620  and  _621
REMARK  234  A    between atoms: _621  and  _622
REMARK                            x       y       z     vdW  Elec       q    Type
REMARK                         _______ _______ _______ _____ _____    ______ ____
ROOT
ATOM      1  O   HOH     1       1.838  18.993   1.284  0.00  0.00    +0.000 OA
ENDROOT
TORSDOF 0
REMARK  Name = ../refined-set-2016/4f0c/4f0c_pocket.pdb
REMARK  234 active torsions:
REMARK  status: ('A' for Active; 'I' for Inactive)
REMARK    1  A    between atoms: _1  and  _3
REMARK    2  A    between atoms: _3  and  _4
REMARK    3  A    between atoms: _3  and  _6
REMARK    4  A    between atoms: _6  and  _7
REMARK    5  A    between atoms: _12  and  _14
REMARK    6  A    between atoms: _14  and  _15
REMARK    7  A    between atoms: _14  and  _17
REMARK    8  A    between atoms: _17  and  _18
REMARK    9  A    between atoms: _23  and  _25
REMARK   10  A    between atoms: _25  and  _26
REMARK   11  A    between atoms: _25  and  _28
REMARK   12  A    between atoms: _31  and  _33
REMARK   13  A    between atoms: _33  and  _34
REMARK   14  A    between atoms: _37  and  _38
REMARK   15  A    between atoms: _43  and  _45
REMARK   16  A    between atoms: _45  and  _46
REMARK   17  A    between atoms: _45  and  _48
REMARK   18  A    between atoms: _48  and  _49
REMARK   19  A    between atoms: _54  and  _56
REMARK   20  A    between atoms: _56  and  _57
REMARK   21  A    between atoms: _59  and  _61
REMARK   22  A    between atoms: _61  and  _62
REMARK   23  A    between atoms: _61  and  _64
REMARK   24  A    between atoms: _64  and  _65
REMARK   25  A    between atoms: _75  and  _77
REMARK   26  A    between atoms: _77  and  _78
REMARK   27  A    between atoms: _77  and  _80
REMARK   28  A    between atoms: _80  and  _81
REMARK   29  A    between atoms: _81  and  _82
REMARK   30  A    between atoms: _82  and  _83
REMARK   31  A    between atoms: _83  and  _84
REMARK   32  A    between atoms: _88  and  _90
REMARK   33  A    between atoms: _90  and  _91
REMARK   34  A    between atoms: _90  and  _93
REMARK   35  A    between atoms: _96  and  _98
REMARK   36  A    between atoms: _98  and  _99
REMARK   37  A    between atoms: _98  and  _101
REMARK   38  A    between atoms: _104  and  _106
REMARK   39  A    between atoms: _106  and  _107
REMARK   40  A    between atoms: _106  and  _109
REMARK   41  A    between atoms: _109  and  _110
REMARK   42  A    between atoms: _113  and  _115
REMARK   43  A    between atoms: _115  and  _116
REMARK   44  A    between atoms: _118  and  _120
REMARK   45  A    between atoms: _120  and  _121
REMARK   46  A    between atoms: _120  and  _123
REMARK   47  A    between atoms: _123  and  _124
REMARK   48  A    between atoms: _124  and  _125
REMARK   49  A    between atoms: _125  and  _126
REMARK   50  A    between atoms: _135  and  _137
REMARK   51  A    between atoms: _137  and  _138
REMARK   52  A    between atoms: _137  and  _140
REMARK   53  A    between atoms: _140  and  _141
REMARK   54  A    between atoms: _146  and  _148
REMARK   55  A    between atoms: _148  and  _149
REMARK   56  A    between atoms: _148  and  _151
REMARK   57  A    between atoms: _151  and  _152
REMARK   58  A    between atoms: _152  and  _153
REMARK   59  A    between atoms: _153  and  _154
REMARK   60  A    between atoms: _154  and  _155
REMARK   61  A    between atoms: _159  and  _161
REMARK   62  A    between atoms: _161  and  _162
REMARK   63  A    between atoms: _161  and  _164
REMARK   64  A    between atoms: _164  and  _165
REMARK   65  A    between atoms: _171  and  _173
REMARK   66  A    between atoms: _173  and  _174
REMARK   67  A    between atoms: _173  and  _176
REMARK   68  A    between atoms: _176  and  _177
REMARK   69  A    between atoms: _182  and  _184
REMARK   70  A    between atoms: _184  and  _185
REMARK   71  A    between atoms: _184  and  _187
REMARK   72  A    between atoms: _187  and  _188
REMARK   73  A    between atoms: _193  and  _195
REMARK   74  A    between atoms: _195  and  _196
REMARK   75  A    between atoms: _198  and  _200
REMARK   76  A    between atoms: _200  and  _201
REMARK   77  A    between atoms: _200  and  _203
REMARK   78  A    between atoms: _203  and  _204
REMARK   79  A    between atoms: _204  and  _205
REMARK   80  A    between atoms: _205  and  _206
REMARK   81  A    between atoms: _215  and  _217
REMARK   82  A    between atoms: _217  and  _218
REMARK   83  A    between atoms: _217  and  _220
REMARK   84  A    between atoms: _220  and  _221
REMARK   85  A    between atoms: _225  and  _226
REMARK   86  A    between atoms: _231  and  _233
REMARK   87  A    between atoms: _233  and  _234
REMARK   88  A    between atoms: _237  and  _239
REMARK   89  A    between atoms: _239  and  _240
REMARK   90  A    between atoms: _239  and  _242
REMARK   91  A    between atoms: _242  and  _243
REMARK   92  A    between atoms: _253  and  _255
REMARK   93  A    between atoms: _255  and  _256
REMARK   94  A    between atoms: _255  and  _258
REMARK   95  A    between atoms: _258  and  _259
REMARK   96  A    between atoms: _259  and  _260
REMARK   97  A    between atoms: _263  and  _265
REMARK   98  A    between atoms: _265  and  _266
REMARK   99  A    between atoms: _265  and  _268
REMARK  100  A    between atoms: _268  and  _269
REMARK  101  A    between atoms: _271  and  _273
REMARK  102  A    between atoms: _273  and  _274
REMARK  103  A    between atoms: _273  and  _276
REMARK  104  A    between atoms: _276  and  _277
REMARK  105  A    between atoms: _280  and  _282
REMARK  106  A    between atoms: _282  and  _283
REMARK  107  A    between atoms: _286  and  _288
REMARK  108  A    between atoms: _288  and  _289
REMARK  109  A    between atoms: _288  and  _291
REMARK  110  A    between atoms: _291  and  _292
REMARK  111  A    between atoms: _295  and  _297
REMARK  112  A    between atoms: _297  and  _298
REMARK  113  A    between atoms: _297  and  _300
REMARK  114  A    between atoms: _300  and  _301
REMARK  115  A    between atoms: _301  and  _302
REMARK  116  A    between atoms: _307  and  _309
REMARK  117  A    between atoms: _309  and  _310
REMARK  118  A    between atoms: _313  and  _315
REMARK  119  A    between atoms: _315  and  _316
REMARK  120  A    between atoms: _315  and  _318
REMARK  121  A    between atoms: _318  and  _319
REMARK  122  A    between atoms: _321  and  _323
REMARK  123  A    between atoms: _323  and  _324
REMARK  124  A    between atoms: _326  and  _328
REMARK  125  A    between atoms: _328  and  _329
REMARK  126  A    between atoms: _328  and  _331
REMARK  127  A    between atoms: _331  and  _332
REMARK  128  A    between atoms: _332  and  _333
REMARK  129  A    between atoms: _338  and  _340
REMARK  130  A    between atoms: _340  and  _341
REMARK  131  A    between atoms: _344  and  _345
REMARK  132  A    between atoms: _350  and  _352
REMARK  133  A    between atoms: _352  and  _353
REMARK  134  A    between atoms: _352  and  _355
REMARK  135  A    between atoms: _355  and  _356
REMARK  136  A    between atoms: _361  and  _362
REMARK  137  A    between atoms: _364  and  _366
REMARK  138  A    between atoms: _366  and  _367
REMARK  139  A    between atoms: _366  and  _369
REMARK  140  A    between atoms: _369  and  _370
REMARK  141  A    between atoms: _376  and  _378
REMARK  142  A    between atoms: _378  and  _379
REMARK  143  A    between atoms: _381  and  _383
REMARK  144  A    between atoms: _383  and  _384
REMARK  145  A    between atoms: _383  and  _386
REMARK  146  A    between atoms: _386  and  _387
REMARK  147  A    between atoms: _387  and  _388
REMARK  148  A    between atoms: _393  and  _395
REMARK  149  A    between atoms: _395  and  _396
REMARK  150  A    between atoms: _399  and  _401
REMARK  151  A    between atoms: _401  and  _402
REMARK  152  A    between atoms: _404  and  _406
REMARK  153  A    between atoms: _406  and  _407
REMARK  154  A    between atoms: _406  and  _409
REMARK  155  A    between atoms: _409  and  _410
REMARK  156  A    between atoms: _420  and  _422
REMARK  157  A    between atoms: _422  and  _423
REMARK  158  A    between atoms: _422  and  _425
REMARK  159  A    between atoms: _425  and  _426
REMARK  160  A    between atoms: _432  and  _434
REMARK  161  A    between atoms: _434  and  _435
REMARK  162  A    between atoms: _434  and  _437
REMARK  163  A    between atoms: _440  and  _442
REMARK  164  A    between atoms: _442  and  _443
REMARK  165  A    between atoms: _446  and  _448
REMARK  166  A    between atoms: _448  and  _449
REMARK  167  A    between atoms: _448  and  _451
REMARK  168  A    between atoms: _451  and  _452
REMARK  169  A    between atoms: _452  and  _453
REMARK  170  A    between atoms: _456  and  _458
REMARK  171  A    between atoms: _458  and  _459
REMARK  172  A    between atoms: _458  and  _461
REMARK  173  A    between atoms: _461  and  _462
REMARK  174  A    between atoms: _472  and  _474
REMARK  175  A    between atoms: _474  and  _475
REMARK  176  A    between atoms: _474  and  _477
REMARK  177  A    between atoms: _477  and  _478
REMARK  178  A    between atoms: _478  and  _479
REMARK  179  A    between atoms: _479  and  _480
REMARK  180  A    between atoms: _480  and  _481
REMARK  181  A    between atoms: _485  and  _487
REMARK  182  A    between atoms: _487  and  _488
REMARK  183  A    between atoms: _487  and  _490
REMARK  184  A    between atoms: _490  and  _491
REMARK  185  A    between atoms: _497  and  _499
REMARK  186  A    between atoms: _499  and  _500
REMARK  187  A    between atoms: _499  and  _502
REMARK  188  A    between atoms: _502  and  _503
REMARK  189  A    between atoms: _509  and  _511
REMARK  190  A    between atoms: _511  and  _512
REMARK  191  A    between atoms: _511  and  _514
REMARK  192  A    between atoms: _514  and  _515
REMARK  193  A    between atoms: _515  and  _516
REMARK  194  A    between atoms: _521  and  _523
REMARK  195  A    between atoms: _523  and  _524
REMARK  196  A    between atoms: _527  and  _529
REMARK  197  A    between atoms: _529  and  _530
REMARK  198  A    between atoms: _529  and  _532
REMARK  199  A    between atoms: _532  and  _533
REMARK  200  A    between atoms: _535  and  _537
REMARK  201  A    between atoms: _537  and  _538
REMARK  202  A    between atoms: _540  and  _542
REMARK  203  A    between atoms: _542  and  _543
REMARK  204  A    between atoms: _542  and  _545
REMARK  205  A    between atoms: _545  and  _546
REMARK  206  A    between atoms: _546  and  _547
REMARK  207  A    between atoms: _553  and  _554
REMARK  208  A    between atoms: _559  and  _561
REMARK  209  A    between atoms: _561  and  _562
REMARK  210  A    between atoms: _561  and  _564
REMARK  211  A    between atoms: _564  and  _565
REMARK  212  A    between atoms: _570  and  _571
REMARK  213  A    between atoms: _573  and  _575
REMARK  214  A    between atoms: _575  and  _576
REMARK  215  A    between atoms: _575  and  _578
REMARK  216  A    between atoms: _578  and  _579
REMARK  217  A    between atoms: _579  and  _580
REMARK  218  A    between atoms: _580  and  _581
REMARK  219  A    between atoms: _590  and  _592
REMARK  220  A    between atoms: _592  and  _593
REMARK  221  A    between atoms: _592  and  _595
REMARK  222  A    between atoms: _595  and  _596
REMARK  223  A    between atoms: _601  and  _602
REMARK  224  A    between atoms: _604  and  _606
REMARK  225  A    between atoms: _606  and  _607
REMARK  226  A    between atoms: _606  and  _609
REMARK  227  A    between atoms: _609  and  _610
REMARK  228  A    between atoms: _610  and  _611
REMARK  229  A    between atoms: _614  and  _616
REMARK  230  A    between atoms: _616  and  _617
REMARK  231  A    between atoms: _616  and  _619
REMARK  232  A    between atoms: _619  and  _620
REMARK  233  A    between atoms: _620  and  _621
REMARK  234  A    between atoms: _621  and  _622
REMARK                            x       y       z     vdW  Elec       q    Type
REMARK                         _______ _______ _______ _____ _____    ______ ____
ROOT
ATOM      1  O   HOH     1       9.323  17.409   6.998  0.00  0.00    +0.000 OA
ENDROOT
TORSDOF 0
REMARK  Name = ../refined-set-2016/4f0c/4f0c_pocket.pdb
REMARK  234 active torsions:
REMARK  status: ('A' for Active; 'I' for Inactive)
REMARK    1  A    between atoms: _1  and  _3
REMARK    2  A    between atoms: _3  and  _4
REMARK    3  A    between atoms: _3  and  _6
REMARK    4  A    between atoms: _6  and  _7
REMARK    5  A    between atoms: _12  and  _14
REMARK    6  A    between atoms: _14  and  _15
REMARK    7  A    between atoms: _14  and  _17
REMARK    8  A    between atoms: _17  and  _18
REMARK    9  A    between atoms: _23  and  _25
REMARK   10  A    between atoms: _25  and  _26
REMARK   11  A    between atoms: _25  and  _28
REMARK   12  A    between atoms: _31  and  _33
REMARK   13  A    between atoms: _33  and  _34
REMARK   14  A    between atoms: _37  and  _38
REMARK   15  A    between atoms: _43  and  _45
REMARK   16  A    between atoms: _45  and  _46
REMARK   17  A    between atoms: _45  and  _48
REMARK   18  A    between atoms: _48  and  _49
REMARK   19  A    between atoms: _54  and  _56
REMARK   20  A    between atoms: _56  and  _57
REMARK   21  A    between atoms: _59  and  _61
REMARK   22  A    between atoms: _61  and  _62
REMARK   23  A    between atoms: _61  and  _64
REMARK   24  A    between atoms: _64  and  _65
REMARK   25  A    between atoms: _75  and  _77
REMARK   26  A    between atoms: _77  and  _78
REMARK   27  A    between atoms: _77  and  _80
REMARK   28  A    between atoms: _80  and  _81
REMARK   29  A    between atoms: _81  and  _82
REMARK   30  A    between atoms: _82  and  _83
REMARK   31  A    between atoms: _83  and  _84
REMARK   32  A    between atoms: _88  and  _90
REMARK   33  A    between atoms: _90  and  _91
REMARK   34  A    between atoms: _90  and  _93
REMARK   35  A    between atoms: _96  and  _98
REMARK   36  A    between atoms: _98  and  _99
REMARK   37  A    between atoms: _98  and  _101
REMARK   38  A    between atoms: _104  and  _106
REMARK   39  A    between atoms: _106  and  _107
REMARK   40  A    between atoms: _106  and  _109
REMARK   41  A    between atoms: _109  and  _110
REMARK   42  A    between atoms: _113  and  _115
REMARK   43  A    between atoms: _115  and  _116
REMARK   44  A    between atoms: _118  and  _120
REMARK   45  A    between atoms: _120  and  _121
REMARK   46  A    between atoms: _120  and  _123
REMARK   47  A    between atoms: _123  and  _124
REMARK   48  A    between atoms: _124  and  _125
REMARK   49  A    between atoms: _125  and  _126
REMARK   50  A    between atoms: _135  and  _137
REMARK   51  A    between atoms: _137  and  _138
REMARK   52  A    between atoms: _137  and  _140
REMARK   53  A    between atoms: _140  and  _141
REMARK   54  A    between atoms: _146  and  _148
REMARK   55  A    between atoms: _148  and  _149
REMARK   56  A    between atoms: _148  and  _151
REMARK   57  A    between atoms: _151  and  _152
REMARK   58  A    between atoms: _152  and  _153
REMARK   59  A    between atoms: _153  and  _154
REMARK   60  A    between atoms: _154  and  _155
REMARK   61  A    between atoms: _159  and  _161
REMARK   62  A    between atoms: _161  and  _162
REMARK   63  A    between atoms: _161  and  _164
REMARK   64  A    between atoms: _164  and  _165
REMARK   65  A    between atoms: _171  and  _173
REMARK   66  A    between atoms: _173  and  _174
REMARK   67  A    between atoms: _173  and  _176
REMARK   68  A    between atoms: _176  and  _177
REMARK   69  A    between atoms: _182  and  _184
REMARK   70  A    between atoms: _184  and  _185
REMARK   71  A    between atoms: _184  and  _187
REMARK   72  A    between atoms: _187  and  _188
REMARK   73  A    between atoms: _193  and  _195
REMARK   74  A    between atoms: _195  and  _196
REMARK   75  A    between atoms: _198  and  _200
REMARK   76  A    between atoms: _200  and  _201
REMARK   77  A    between atoms: _200  and  _203
REMARK   78  A    between atoms: _203  and  _204
REMARK   79  A    between atoms: _204  and  _205
REMARK   80  A    between atoms: _205  and  _206
REMARK   81  A    between atoms: _215  and  _217
REMARK   82  A    between atoms: _217  and  _218
REMARK   83  A    between atoms: _217  and  _220
REMARK   84  A    between atoms: _220  and  _221
REMARK   85  A    between atoms: _225  and  _226
REMARK   86  A    between atoms: _231  and  _233
REMARK   87  A    between atoms: _233  and  _234
REMARK   88  A    between atoms: _237  and  _239
REMARK   89  A    between atoms: _239  and  _240
REMARK   90  A    between atoms: _239  and  _242
REMARK   91  A    between atoms: _242  and  _243
REMARK   92  A    between atoms: _253  and  _255
REMARK   93  A    between atoms: _255  and  _256
REMARK   94  A    between atoms: _255  and  _258
REMARK   95  A    between atoms: _258  and  _259
REMARK   96  A    between atoms: _259  and  _260
REMARK   97  A    between atoms: _263  and  _265
REMARK   98  A    between atoms: _265  and  _266
REMARK   99  A    between atoms: _265  and  _268
REMARK  100  A    between atoms: _268  and  _269
REMARK  101  A    between atoms: _271  and  _273
REMARK  102  A    between atoms: _273  and  _274
REMARK  103  A    between atoms: _273  and  _276
REMARK  104  A    between atoms: _276  and  _277
REMARK  105  A    between atoms: _280  and  _282
REMARK  106  A    between atoms: _282  and  _283
REMARK  107  A    between atoms: _286  and  _288
REMARK  108  A    between atoms: _288  and  _289
REMARK  109  A    between atoms: _288  and  _291
REMARK  110  A    between atoms: _291  and  _292
REMARK  111  A    between atoms: _295  and  _297
REMARK  112  A    between atoms: _297  and  _298
REMARK  113  A    between atoms: _297  and  _300
REMARK  114  A    between atoms: _300  and  _301
REMARK  115  A    between atoms: _301  and  _302
REMARK  116  A    between atoms: _307  and  _309
REMARK  117  A    between atoms: _309  and  _310
REMARK  118  A    between atoms: _313  and  _315
REMARK  119  A    between atoms: _315  and  _316
REMARK  120  A    between atoms: _315  and  _318
REMARK  121  A    between atoms: _318  and  _319
REMARK  122  A    between atoms: _321  and  _323
REMARK  123  A    between atoms: _323  and  _324
REMARK  124  A    between atoms: _326  and  _328
REMARK  125  A    between atoms: _328  and  _329
REMARK  126  A    between atoms: _328  and  _331
REMARK  127  A    between atoms: _331  and  _332
REMARK  128  A    between atoms: _332  and  _333
REMARK  129  A    between atoms: _338  and  _340
REMARK  130  A    between atoms: _340  and  _341
REMARK  131  A    between atoms: _344  and  _345
REMARK  132  A    between atoms: _350  and  _352
REMARK  133  A    between atoms: _352  and  _353
REMARK  134  A    between atoms: _352  and  _355
REMARK  135  A    between atoms: _355  and  _356
REMARK  136  A    between atoms: _361  and  _362
REMARK  137  A    between atoms: _364  and  _366
REMARK  138  A    between atoms: _366  and  _367
REMARK  139  A    between atoms: _366  and  _369
REMARK  140  A    between atoms: _369  and  _370
REMARK  141  A    between atoms: _376  and  _378
REMARK  142  A    between atoms: _378  and  _379
REMARK  143  A    between atoms: _381  and  _383
REMARK  144  A    between atoms: _383  and  _384
REMARK  145  A    between atoms: _383  and  _386
REMARK  146  A    between atoms: _386  and  _387
REMARK  147  A    between atoms: _387  and  _388
REMARK  148  A    between atoms: _393  and  _395
REMARK  149  A    between atoms: _395  and  _396
REMARK  150  A    between atoms: _399  and  _401
REMARK  151  A    between atoms: _401  and  _402
REMARK  152  A    between atoms: _404  and  _406
REMARK  153  A    between atoms: _406  and  _407
REMARK  154  A    between atoms: _406  and  _409
REMARK  155  A    between atoms: _409  and  _410
REMARK  156  A    between atoms: _420  and  _422
REMARK  157  A    between atoms: _422  and  _423
REMARK  158  A    between atoms: _422  and  _425
REMARK  159  A    between atoms: _425  and  _426
REMARK  160  A    between atoms: _432  and  _434
REMARK  161  A    between atoms: _434  and  _435
REMARK  162  A    between atoms: _434  and  _437
REMARK  163  A    between atoms: _440  and  _442
REMARK  164  A    between atoms: _442  and  _443
REMARK  165  A    between atoms: _446  and  _448
REMARK  166  A    between atoms: _448  and  _449
REMARK  167  A    between atoms: _448  and  _451
REMARK  168  A    between atoms: _451  and  _452
REMARK  169  A    between atoms: _452  and  _453
REMARK  170  A    between atoms: _456  and  _458
REMARK  171  A    between atoms: _458  and  _459
REMARK  172  A    between atoms: _458  and  _461
REMARK  173  A    between atoms: _461  and  _462
REMARK  174  A    between atoms: _472  and  _474
REMARK  175  A    between atoms: _474  and  _475
REMARK  176  A    between atoms: _474  and  _477
REMARK  177  A    between atoms: _477  and  _478
REMARK  178  A    between atoms: _478  and  _479
REMARK  179  A    between atoms: _479  and  _480
REMARK  180  A    between atoms: _480  and  _481
REMARK  181  A    between atoms: _485  and  _487
REMARK  182  A    between atoms: _487  and  _488
REMARK  183  A    between atoms: _487  and  _490
REMARK  184  A    between atoms: _490  and  _491
REMARK  185  A    between atoms: _497  and  _499
REMARK  186  A    between atoms: _499  and  _500
REMARK  187  A    between atoms: _499  and  _502
REMARK  188  A    between atoms: _502  and  _503
REMARK  189  A    between atoms: _509  and  _511
REMARK  190  A    between atoms: _511  and  _512
REMARK  191  A    between atoms: _511  and  _514
REMARK  192  A    between atoms: _514  and  _515
REMARK  193  A    between atoms: _515  and  _516
REMARK  194  A    between atoms: _521  and  _523
REMARK  195  A    between atoms: _523  and  _524
REMARK  196  A    between atoms: _527  and  _529
REMARK  197  A    between atoms: _529  and  _530
REMARK  198  A    between atoms: _529  and  _532
REMARK  199  A    between atoms: _532  and  _533
REMARK  200  A    between atoms: _535  and  _537
REMARK  201  A    between atoms: _537  and  _538
REMARK  202  A    between atoms: _540  and  _542
REMARK  203  A    between atoms: _542  and  _543
REMARK  204  A    between atoms: _542  and  _545
REMARK  205  A    between atoms: _545  and  _546
REMARK  206  A    between atoms: _546  and  _547
REMARK  207  A    between atoms: _553  and  _554
REMARK  208  A    between atoms: _559  and  _561
REMARK  209  A    between atoms: _561  and  _562
REMARK  210  A    between atoms: _561  and  _564
REMARK  211  A    between atoms: _564  and  _565
REMARK  212  A    between atoms: _570  and  _571
REMARK  213  A    between atoms: _573  and  _575
REMARK  214  A    between atoms: _575  and  _576
REMARK  215  A    between atoms: _575  and  _578
REMARK  216  A    between atoms: _578  and  _579
REMARK  217  A    between atoms: _579  and  _580
REMARK  218  A    between atoms: _580  and  _581
REMARK  219  A    between atoms: _590  and  _592
REMARK  220  A    between atoms: _592  and  _593
REMARK  221  A    between atoms: _592  and  _595
REMARK  222  A    between atoms: _595  and  _596
REMARK  223  A    between atoms: _601  and  _602
REMARK  224  A    between atoms: _604  and  _606
REMARK  225  A    between atoms: _606  and  _607
REMARK  226  A    between atoms: _606  and  _609
REMARK  227  A    between atoms: _609  and  _610
REMARK  228  A    between atoms: _610  and  _611
REMARK  229  A    between atoms: _614  and  _616
REMARK  230  A    between atoms: _616  and  _617
REMARK  231  A    between atoms: _616  and  _619
REMARK  232  A    between atoms: _619  and  _620
REMARK  233  A    between atoms: _620  and  _621
REMARK  234  A    between atoms: _621  and  _622
REMARK                            x       y       z     vdW  Elec       q    Type
REMARK                         _______ _______ _______ _____ _____    ______ ____
ROOT
ATOM      1  O   HOH     1       8.520  17.794   4.368  0.00  0.00    +0.000 OA
ENDROOT
TORSDOF 0
REMARK  Name = ../refined-set-2016/4f0c/4f0c_pocket.pdb
REMARK  234 active torsions:
REMARK  status: ('A' for Active; 'I' for Inactive)
REMARK    1  A    between atoms: _1  and  _3
REMARK    2  A    between atoms: _3  and  _4
REMARK    3  A    between atoms: _3  and  _6
REMARK    4  A    between atoms: _6  and  _7
REMARK    5  A    between atoms: _12  and  _14
REMARK    6  A    between atoms: _14  and  _15
REMARK    7  A    between atoms: _14  and  _17
REMARK    8  A    between atoms: _17  and  _18
REMARK    9  A    between atoms: _23  and  _25
REMARK   10  A    between atoms: _25  and  _26
REMARK   11  A    between atoms: _25  and  _28
REMARK   12  A    between atoms: _31  and  _33
REMARK   13  A    between atoms: _33  and  _34
REMARK   14  A    between atoms: _37  and  _38
REMARK   15  A    between atoms: _43  and  _45
REMARK   16  A    between atoms: _45  and  _46
REMARK   17  A    between atoms: _45  and  _48
REMARK   18  A    between atoms: _48  and  _49
REMARK   19  A    between atoms: _54  and  _56
REMARK   20  A    between atoms: _56  and  _57
REMARK   21  A    between atoms: _59  and  _61
REMARK   22  A    between atoms: _61  and  _62
REMARK   23  A    between atoms: _61  and  _64
REMARK   24  A    between atoms: _64  and  _65
REMARK   25  A    between atoms: _75  and  _77
REMARK   26  A    between atoms: _77  and  _78
REMARK   27  A    between atoms: _77  and  _80
REMARK   28  A    between atoms: _80  and  _81
REMARK   29  A    between atoms: _81  and  _82
REMARK   30  A    between atoms: _82  and  _83
REMARK   31  A    between atoms: _83  and  _84
REMARK   32  A    between atoms: _88  and  _90
REMARK   33  A    between atoms: _90  and  _91
REMARK   34  A    between atoms: _90  and  _93
REMARK   35  A    between atoms: _96  and  _98
REMARK   36  A    between atoms: _98  and  _99
REMARK   37  A    between atoms: _98  and  _101
REMARK   38  A    between atoms: _104  and  _106
REMARK   39  A    between atoms: _106  and  _107
REMARK   40  A    between atoms: _106  and  _109
REMARK   41  A    between atoms: _109  and  _110
REMARK   42  A    between atoms: _113  and  _115
REMARK   43  A    between atoms: _115  and  _116
REMARK   44  A    between atoms: _118  and  _120
REMARK   45  A    between atoms: _120  and  _121
REMARK   46  A    between atoms: _120  and  _123
REMARK   47  A    between atoms: _123  and  _124
REMARK   48  A    between atoms: _124  and  _125
REMARK   49  A    between atoms: _125  and  _126
REMARK   50  A    between atoms: _135  and  _137
REMARK   51  A    between atoms: _137  and  _138
REMARK   52  A    between atoms: _137  and  _140
REMARK   53  A    between atoms: _140  and  _141
REMARK   54  A    between atoms: _146  and  _148
REMARK   55  A    between atoms: _148  and  _149
REMARK   56  A    between atoms: _148  and  _151
REMARK   57  A    between atoms: _151  and  _152
REMARK   58  A    between atoms: _152  and  _153
REMARK   59  A    between atoms: _153  and  _154
REMARK   60  A    between atoms: _154  and  _155
REMARK   61  A    between atoms: _159  and  _161
REMARK   62  A    between atoms: _161  and  _162
REMARK   63  A    between atoms: _161  and  _164
REMARK   64  A    between atoms: _164  and  _165
REMARK   65  A    between atoms: _171  and  _173
REMARK   66  A    between atoms: _173  and  _174
REMARK   67  A    between atoms: _173  and  _176
REMARK   68  A    between atoms: _176  and  _177
REMARK   69  A    between atoms: _182  and  _184
REMARK   70  A    between atoms: _184  and  _185
REMARK   71  A    between atoms: _184  and  _187
REMARK   72  A    between atoms: _187  and  _188
REMARK   73  A    between atoms: _193  and  _195
REMARK   74  A    between atoms: _195  and  _196
REMARK   75  A    between atoms: _198  and  _200
REMARK   76  A    between atoms: _200  and  _201
REMARK   77  A    between atoms: _200  and  _203
REMARK   78  A    between atoms: _203  and  _204
REMARK   79  A    between atoms: _204  and  _205
REMARK   80  A    between atoms: _205  and  _206
REMARK   81  A    between atoms: _215  and  _217
REMARK   82  A    between atoms: _217  and  _218
REMARK   83  A    between atoms: _217  and  _220
REMARK   84  A    between atoms: _220  and  _221
REMARK   85  A    between atoms: _225  and  _226
REMARK   86  A    between atoms: _231  and  _233
REMARK   87  A    between atoms: _233  and  _234
REMARK   88  A    between atoms: _237  and  _239
REMARK   89  A    between atoms: _239  and  _240
REMARK   90  A    between atoms: _239  and  _242
REMARK   91  A    between atoms: _242  and  _243
REMARK   92  A    between atoms: _253  and  _255
REMARK   93  A    between atoms: _255  and  _256
REMARK   94  A    between atoms: _255  and  _258
REMARK   95  A    between atoms: _258  and  _259
REMARK   96  A    between atoms: _259  and  _260
REMARK   97  A    between atoms: _263  and  _265
REMARK   98  A    between atoms: _265  and  _266
REMARK   99  A    between atoms: _265  and  _268
REMARK  100  A    between atoms: _268  and  _269
REMARK  101  A    between atoms: _271  and  _273
REMARK  102  A    between atoms: _273  and  _274
REMARK  103  A    between atoms: _273  and  _276
REMARK  104  A    between atoms: _276  and  _277
REMARK  105  A    between atoms: _280  and  _282
REMARK  106  A    between atoms: _282  and  _283
REMARK  107  A    between atoms: _286  and  _288
REMARK  108  A    between atoms: _288  and  _289
REMARK  109  A    between atoms: _288  and  _291
REMARK  110  A    between atoms: _291  and  _292
REMARK  111  A    between atoms: _295  and  _297
REMARK  112  A    between atoms: _297  and  _298
REMARK  113  A    between atoms: _297  and  _300
REMARK  114  A    between atoms: _300  and  _301
REMARK  115  A    between atoms: _301  and  _302
REMARK  116  A    between atoms: _307  and  _309
REMARK  117  A    between atoms: _309  and  _310
REMARK  118  A    between atoms: _313  and  _315
REMARK  119  A    between atoms: _315  and  _316
REMARK  120  A    between atoms: _315  and  _318
REMARK  121  A    between atoms: _318  and  _319
REMARK  122  A    between atoms: _321  and  _323
REMARK  123  A    between atoms: _323  and  _324
REMARK  124  A    between atoms: _326  and  _328
REMARK  125  A    between atoms: _328  and  _329
REMARK  126  A    between atoms: _328  and  _331
REMARK  127  A    between atoms: _331  and  _332
REMARK  128  A    between atoms: _332  and  _333
REMARK  129  A    between atoms: _338  and  _340
REMARK  130  A    between atoms: _340  and  _341
REMARK  131  A    between atoms: _344  and  _345
REMARK  132  A    between atoms: _350  and  _352
REMARK  133  A    between atoms: _352  and  _353
REMARK  134  A    between atoms: _352  and  _355
REMARK  135  A    between atoms: _355  and  _356
REMARK  136  A    between atoms: _361  and  _362
REMARK  137  A    between atoms: _364  and  _366
REMARK  138  A    between atoms: _366  and  _367
REMARK  139  A    between atoms: _366  and  _369
REMARK  140  A    between atoms: _369  and  _370
REMARK  141  A    between atoms: _376  and  _378
REMARK  142  A    between atoms: _378  and  _379
REMARK  143  A    between atoms: _381  and  _383
REMARK  144  A    between atoms: _383  and  _384
REMARK  145  A    between atoms: _383  and  _386
REMARK  146  A    between atoms: _386  and  _387
REMARK  147  A    between atoms: _387  and  _388
REMARK  148  A    between atoms: _393  and  _395
REMARK  149  A    between atoms: _395  and  _396
REMARK  150  A    between atoms: _399  and  _401
REMARK  151  A    between atoms: _401  and  _402
REMARK  152  A    between atoms: _404  and  _406
REMARK  153  A    between atoms: _406  and  _407
REMARK  154  A    between atoms: _406  and  _409
REMARK  155  A    between atoms: _409  and  _410
REMARK  156  A    between atoms: _420  and  _422
REMARK  157  A    between atoms: _422  and  _423
REMARK  158  A    between atoms: _422  and  _425
REMARK  159  A    between atoms: _425  and  _426
REMARK  160  A    between atoms: _432  and  _434
REMARK  161  A    between atoms: _434  and  _435
REMARK  162  A    between atoms: _434  and  _437
REMARK  163  A    between atoms: _440  and  _442
REMARK  164  A    between atoms: _442  and  _443
REMARK  165  A    between atoms: _446  and  _448
REMARK  166  A    between atoms: _448  and  _449
REMARK  167  A    between atoms: _448  and  _451
REMARK  168  A    between atoms: _451  and  _452
REMARK  169  A    between atoms: _452  and  _453
REMARK  170  A    between atoms: _456  and  _458
REMARK  171  A    between atoms: _458  and  _459
REMARK  172  A    between atoms: _458  and  _461
REMARK  173  A    between atoms: _461  and  _462
REMARK  174  A    between atoms: _472  and  _474
REMARK  175  A    between atoms: _474  and  _475
REMARK  176  A    between atoms: _474  and  _477
REMARK  177  A    between atoms: _477  and  _478
REMARK  178  A    between atoms: _478  and  _479
REMARK  179  A    between atoms: _479  and  _480
REMARK  180  A    between atoms: _480  and  _481
REMARK  181  A    between atoms: _485  and  _487
REMARK  182  A    between atoms: _487  and  _488
REMARK  183  A    between atoms: _487  and  _490
REMARK  184  A    between atoms: _490  and  _491
REMARK  185  A    between atoms: _497  and  _499
REMARK  186  A    between atoms: _499  and  _500
REMARK  187  A    between atoms: _499  and  _502
REMARK  188  A    between atoms: _502  and  _503
REMARK  189  A    between atoms: _509  and  _511
REMARK  190  A    between atoms: _511  and  _512
REMARK  191  A    between atoms: _511  and  _514
REMARK  192  A    between atoms: _514  and  _515
REMARK  193  A    between atoms: _515  and  _516
REMARK  194  A    between atoms: _521  and  _523
REMARK  195  A    between atoms: _523  and  _524
REMARK  196  A    between atoms: _527  and  _529
REMARK  197  A    between atoms: _529  and  _530
REMARK  198  A    between atoms: _529  and  _532
REMARK  199  A    between atoms: _532  and  _533
REMARK  200  A    between atoms: _535  and  _537
REMARK  201  A    between atoms: _537  and  _538
REMARK  202  A    between atoms: _540  and  _542
REMARK  203  A    between atoms: _542  and  _543
REMARK  204  A    between atoms: _542  and  _545
REMARK  205  A    between atoms: _545  and  _546
REMARK  206  A    between atoms: _546  and  _547
REMARK  207  A    between atoms: _553  and  _554
REMARK  208  A    between atoms: _559  and  _561
REMARK  209  A    between atoms: _561  and  _562
REMARK  210  A    between atoms: _561  and  _564
REMARK  211  A    between atoms: _564  and  _565
REMARK  212  A    between atoms: _570  and  _571
REMARK  213  A    between atoms: _573  and  _575
REMARK  214  A    between atoms: _575  and  _576
REMARK  215  A    between atoms: _575  and  _578
REMARK  216  A    between atoms: _578  and  _579
REMARK  217  A    between atoms: _579  and  _580
REMARK  218  A    between atoms: _580  and  _581
REMARK  219  A    between atoms: _590  and  _592
REMARK  220  A    between atoms: _592  and  _593
REMARK  221  A    between atoms: _592  and  _595
REMARK  222  A    between atoms: _595  and  _596
REMARK  223  A    between atoms: _601  and  _602
REMARK  224  A    between atoms: _604  and  _606
REMARK  225  A    between atoms: _606  and  _607
REMARK  226  A    between atoms: _606  and  _609
REMARK  227  A    between atoms: _609  and  _610
REMARK  228  A    between atoms: _610  and  _611
REMARK  229  A    between atoms: _614  and  _616
REMARK  230  A    between atoms: _616  and  _617
REMARK  231  A    between atoms: _616  and  _619
REMARK  232  A    between atoms: _619  and  _620
REMARK  233  A    between atoms: _620  and  _621
REMARK  234  A    between atoms: _621  and  _622
REMARK                            x       y       z     vdW  Elec       q    Type
REMARK                         _______ _______ _______ _____ _____    ______ ____
ROOT
ATOM      1  O   HOH     1      -6.718  15.865   5.591  0.00  0.00    +0.000 OA
ENDROOT
TORSDOF 0
REMARK  Name = ../refined-set-2016/4f0c/4f0c_pocket.pdb
REMARK  234 active torsions:
REMARK  status: ('A' for Active; 'I' for Inactive)
REMARK    1  A    between atoms: _1  and  _3
REMARK    2  A    between atoms: _3  and  _4
REMARK    3  A    between atoms: _3  and  _6
REMARK    4  A    between atoms: _6  and  _7
REMARK    5  A    between atoms: _12  and  _14
REMARK    6  A    between atoms: _14  and  _15
REMARK    7  A    between atoms: _14  and  _17
REMARK    8  A    between atoms: _17  and  _18
REMARK    9  A    between atoms: _23  and  _25
REMARK   10  A    between atoms: _25  and  _26
REMARK   11  A    between atoms: _25  and  _28
REMARK   12  A    between atoms: _31  and  _33
REMARK   13  A    between atoms: _33  and  _34
REMARK   14  A    between atoms: _37  and  _38
REMARK   15  A    between atoms: _43  and  _45
REMARK   16  A    between atoms: _45  and  _46
REMARK   17  A    between atoms: _45  and  _48
REMARK   18  A    between atoms: _48  and  _49
REMARK   19  A    between atoms: _54  and  _56
REMARK   20  A    between atoms: _56  and  _57
REMARK   21  A    between atoms: _59  and  _61
REMARK   22  A    between atoms: _61  and  _62
REMARK   23  A    between atoms: _61  and  _64
REMARK   24  A    between atoms: _64  and  _65
REMARK   25  A    between atoms: _75  and  _77
REMARK   26  A    between atoms: _77  and  _78
REMARK   27  A    between atoms: _77  and  _80
REMARK   28  A    between atoms: _80  and  _81
REMARK   29  A    between atoms: _81  and  _82
REMARK   30  A    between atoms: _82  and  _83
REMARK   31  A    between atoms: _83  and  _84
REMARK   32  A    between atoms: _88  and  _90
REMARK   33  A    between atoms: _90  and  _91
REMARK   34  A    between atoms: _90  and  _93
REMARK   35  A    between atoms: _96  and  _98
REMARK   36  A    between atoms: _98  and  _99
REMARK   37  A    between atoms: _98  and  _101
REMARK   38  A    between atoms: _104  and  _106
REMARK   39  A    between atoms: _106  and  _107
REMARK   40  A    between atoms: _106  and  _109
REMARK   41  A    between atoms: _109  and  _110
REMARK   42  A    between atoms: _113  and  _115
REMARK   43  A    between atoms: _115  and  _116
REMARK   44  A    between atoms: _118  and  _120
REMARK   45  A    between atoms: _120  and  _121
REMARK   46  A    between atoms: _120  and  _123
REMARK   47  A    between atoms: _123  and  _124
REMARK   48  A    between atoms: _124  and  _125
REMARK   49  A    between atoms: _125  and  _126
REMARK   50  A    between atoms: _135  and  _137
REMARK   51  A    between atoms: _137  and  _138
REMARK   52  A    between atoms: _137  and  _140
REMARK   53  A    between atoms: _140  and  _141
REMARK   54  A    between atoms: _146  and  _148
REMARK   55  A    between atoms: _148  and  _149
REMARK   56  A    between atoms: _148  and  _151
REMARK   57  A    between atoms: _151  and  _152
REMARK   58  A    between atoms: _152  and  _153
REMARK   59  A    between atoms: _153  and  _154
REMARK   60  A    between atoms: _154  and  _155
REMARK   61  A    between atoms: _159  and  _161
REMARK   62  A    between atoms: _161  and  _162
REMARK   63  A    between atoms: _161  and  _164
REMARK   64  A    between atoms: _164  and  _165
REMARK   65  A    between atoms: _171  and  _173
REMARK   66  A    between atoms: _173  and  _174
REMARK   67  A    between atoms: _173  and  _176
REMARK   68  A    between atoms: _176  and  _177
REMARK   69  A    between atoms: _182  and  _184
REMARK   70  A    between atoms: _184  and  _185
REMARK   71  A    between atoms: _184  and  _187
REMARK   72  A    between atoms: _187  and  _188
REMARK   73  A    between atoms: _193  and  _195
REMARK   74  A    between atoms: _195  and  _196
REMARK   75  A    between atoms: _198  and  _200
REMARK   76  A    between atoms: _200  and  _201
REMARK   77  A    between atoms: _200  and  _203
REMARK   78  A    between atoms: _203  and  _204
REMARK   79  A    between atoms: _204  and  _205
REMARK   80  A    between atoms: _205  and  _206
REMARK   81  A    between atoms: _215  and  _217
REMARK   82  A    between atoms: _217  and  _218
REMARK   83  A    between atoms: _217  and  _220
REMARK   84  A    between atoms: _220  and  _221
REMARK   85  A    between atoms: _225  and  _226
REMARK   86  A    between atoms: _231  and  _233
REMARK   87  A    between atoms: _233  and  _234
REMARK   88  A    between atoms: _237  and  _239
REMARK   89  A    between atoms: _239  and  _240
REMARK   90  A    between atoms: _239  and  _242
REMARK   91  A    between atoms: _242  and  _243
REMARK   92  A    between atoms: _253  and  _255
REMARK   93  A    between atoms: _255  and  _256
REMARK   94  A    between atoms: _255  and  _258
REMARK   95  A    between atoms: _258  and  _259
REMARK   96  A    between atoms: _259  and  _260
REMARK   97  A    between atoms: _263  and  _265
REMARK   98  A    between atoms: _265  and  _266
REMARK   99  A    between atoms: _265  and  _268
REMARK  100  A    between atoms: _268  and  _269
REMARK  101  A    between atoms: _271  and  _273
REMARK  102  A    between atoms: _273  and  _274
REMARK  103  A    between atoms: _273  and  _276
REMARK  104  A    between atoms: _276  and  _277
REMARK  105  A    between atoms: _280  and  _282
REMARK  106  A    between atoms: _282  and  _283
REMARK  107  A    between atoms: _286  and  _288
REMARK  108  A    between atoms: _288  and  _289
REMARK  109  A    between atoms: _288  and  _291
REMARK  110  A    between atoms: _291  and  _292
REMARK  111  A    between atoms: _295  and  _297
REMARK  112  A    between atoms: _297  and  _298
REMARK  113  A    between atoms: _297  and  _300
REMARK  114  A    between atoms: _300  and  _301
REMARK  115  A    between atoms: _301  and  _302
REMARK  116  A    between atoms: _307  and  _309
REMARK  117  A    between atoms: _309  and  _310
REMARK  118  A    between atoms: _313  and  _315
REMARK  119  A    between atoms: _315  and  _316
REMARK  120  A    between atoms: _315  and  _318
REMARK  121  A    between atoms: _318  and  _319
REMARK  122  A    between atoms: _321  and  _323
REMARK  123  A    between atoms: _323  and  _324
REMARK  124  A    between atoms: _326  and  _328
REMARK  125  A    between atoms: _328  and  _329
REMARK  126  A    between atoms: _328  and  _331
REMARK  127  A    between atoms: _331  and  _332
REMARK  128  A    between atoms: _332  and  _333
REMARK  129  A    between atoms: _338  and  _340
REMARK  130  A    between atoms: _340  and  _341
REMARK  131  A    between atoms: _344  and  _345
REMARK  132  A    between atoms: _350  and  _352
REMARK  133  A    between atoms: _352  and  _353
REMARK  134  A    between atoms: _352  and  _355
REMARK  135  A    between atoms: _355  and  _356
REMARK  136  A    between atoms: _361  and  _362
REMARK  137  A    between atoms: _364  and  _366
REMARK  138  A    between atoms: _366  and  _367
REMARK  139  A    between atoms: _366  and  _369
REMARK  140  A    between atoms: _369  and  _370
REMARK  141  A    between atoms: _376  and  _378
REMARK  142  A    between atoms: _378  and  _379
REMARK  143  A    between atoms: _381  and  _383
REMARK  144  A    between atoms: _383  and  _384
REMARK  145  A    between atoms: _383  and  _386
REMARK  146  A    between atoms: _386  and  _387
REMARK  147  A    between atoms: _387  and  _388
REMARK  148  A    between atoms: _393  and  _395
REMARK  149  A    between atoms: _395  and  _396
REMARK  150  A    between atoms: _399  and  _401
REMARK  151  A    between atoms: _401  and  _402
REMARK  152  A    between atoms: _404  and  _406
REMARK  153  A    between atoms: _406  and  _407
REMARK  154  A    between atoms: _406  and  _409
REMARK  155  A    between atoms: _409  and  _410
REMARK  156  A    between atoms: _420  and  _422
REMARK  157  A    between atoms: _422  and  _423
REMARK  158  A    between atoms: _422  and  _425
REMARK  159  A    between atoms: _425  and  _426
REMARK  160  A    between atoms: _432  and  _434
REMARK  161  A    between atoms: _434  and  _435
REMARK  162  A    between atoms: _434  and  _437
REMARK  163  A    between atoms: _440  and  _442
REMARK  164  A    between atoms: _442  and  _443
REMARK  165  A    between atoms: _446  and  _448
REMARK  166  A    between atoms: _448  and  _449
REMARK  167  A    between atoms: _448  and  _451
REMARK  168  A    between atoms: _451  and  _452
REMARK  169  A    between atoms: _452  and  _453
REMARK  170  A    between atoms: _456  and  _458
REMARK  171  A    between atoms: _458  and  _459
REMARK  172  A    between atoms: _458  and  _461
REMARK  173  A    between atoms: _461  and  _462
REMARK  174  A    between atoms: _472  and  _474
REMARK  175  A    between atoms: _474  and  _475
REMARK  176  A    between atoms: _474  and  _477
REMARK  177  A    between atoms: _477  and  _478
REMARK  178  A    between atoms: _478  and  _479
REMARK  179  A    between atoms: _479  and  _480
REMARK  180  A    between atoms: _480  and  _481
REMARK  181  A    between atoms: _485  and  _487
REMARK  182  A    between atoms: _487  and  _488
REMARK  183  A    between atoms: _487  and  _490
REMARK  184  A    between atoms: _490  and  _491
REMARK  185  A    between atoms: _497  and  _499
REMARK  186  A    between atoms: _499  and  _500
REMARK  187  A    between atoms: _499  and  _502
REMARK  188  A    between atoms: _502  and  _503
REMARK  189  A    between atoms: _509  and  _511
REMARK  190  A    between atoms: _511  and  _512
REMARK  191  A    between atoms: _511  and  _514
REMARK  192  A    between atoms: _514  and  _515
REMARK  193  A    between atoms: _515  and  _516
REMARK  194  A    between atoms: _521  and  _523
REMARK  195  A    between atoms: _523  and  _524
REMARK  196  A    between atoms: _527  and  _529
REMARK  197  A    between atoms: _529  and  _530
REMARK  198  A    between atoms: _529  and  _532
REMARK  199  A    between atoms: _532  and  _533
REMARK  200  A    between atoms: _535  and  _537
REMARK  201  A    between atoms: _537  and  _538
REMARK  202  A    between atoms: _540  and  _542
REMARK  203  A    between atoms: _542  and  _543
REMARK  204  A    between atoms: _542  and  _545
REMARK  205  A    between atoms: _545  and  _546
REMARK  206  A    between atoms: _546  and  _547
REMARK  207  A    between atoms: _553  and  _554
REMARK  208  A    between atoms: _559  and  _561
REMARK  209  A    between atoms: _561  and  _562
REMARK  210  A    between atoms: _561  and  _564
REMARK  211  A    between atoms: _564  and  _565
REMARK  212  A    between atoms: _570  and  _571
REMARK  213  A    between atoms: _573  and  _575
REMARK  214  A    between atoms: _575  and  _576
REMARK  215  A    between atoms: _575  and  _578
REMARK  216  A    between atoms: _578  and  _579
REMARK  217  A    between atoms: _579  and  _580
REMARK  218  A    between atoms: _580  and  _581
REMARK  219  A    between atoms: _590  and  _592
REMARK  220  A    between atoms: _592  and  _593
REMARK  221  A    between atoms: _592  and  _595
REMARK  222  A    between atoms: _595  and  _596
REMARK  223  A    between atoms: _601  and  _602
REMARK  224  A    between atoms: _604  and  _606
REMARK  225  A    between atoms: _606  and  _607
REMARK  226  A    between atoms: _606  and  _609
REMARK  227  A    between atoms: _609  and  _610
REMARK  228  A    between atoms: _610  and  _611
REMARK  229  A    between atoms: _614  and  _616
REMARK  230  A    between atoms: _616  and  _617
REMARK  231  A    between atoms: _616  and  _619
REMARK  232  A    between atoms: _619  and  _620
REMARK  233  A    between atoms: _620  and  _621
REMARK  234  A    between atoms: _621  and  _622
REMARK                            x       y       z     vdW  Elec       q    Type
REMARK                         _______ _______ _______ _____ _____    ______ ____
ROOT
ATOM      1  O   HOH     1      -8.503  19.308   1.400  0.00  0.00    +0.000 OA
ENDROOT
TORSDOF 0
REMARK  Name = ../refined-set-2016/4f0c/4f0c_pocket.pdb
REMARK  234 active torsions:
REMARK  status: ('A' for Active; 'I' for Inactive)
REMARK    1  A    between atoms: _1  and  _3
REMARK    2  A    between atoms: _3  and  _4
REMARK    3  A    between atoms: _3  and  _6
REMARK    4  A    between atoms: _6  and  _7
REMARK    5  A    between atoms: _12  and  _14
REMARK    6  A    between atoms: _14  and  _15
REMARK    7  A    between atoms: _14  and  _17
REMARK    8  A    between atoms: _17  and  _18
REMARK    9  A    between atoms: _23  and  _25
REMARK   10  A    between atoms: _25  and  _26
REMARK   11  A    between atoms: _25  and  _28
REMARK   12  A    between atoms: _31  and  _33
REMARK   13  A    between atoms: _33  and  _34
REMARK   14  A    between atoms: _37  and  _38
REMARK   15  A    between atoms: _43  and  _45
REMARK   16  A    between atoms: _45  and  _46
REMARK   17  A    between atoms: _45  and  _48
REMARK   18  A    between atoms: _48  and  _49
REMARK   19  A    between atoms: _54  and  _56
REMARK   20  A    between atoms: _56  and  _57
REMARK   21  A    between atoms: _59  and  _61
REMARK   22  A    between atoms: _61  and  _62
REMARK   23  A    between atoms: _61  and  _64
REMARK   24  A    between atoms: _64  and  _65
REMARK   25  A    between atoms: _75  and  _77
REMARK   26  A    between atoms: _77  and  _78
REMARK   27  A    between atoms: _77  and  _80
REMARK   28  A    between atoms: _80  and  _81
REMARK   29  A    between atoms: _81  and  _82
REMARK   30  A    between atoms: _82  and  _83
REMARK   31  A    between atoms: _83  and  _84
REMARK   32  A    between atoms: _88  and  _90
REMARK   33  A    between atoms: _90  and  _91
REMARK   34  A    between atoms: _90  and  _93
REMARK   35  A    between atoms: _96  and  _98
REMARK   36  A    between atoms: _98  and  _99
REMARK   37  A    between atoms: _98  and  _101
REMARK   38  A    between atoms: _104  and  _106
REMARK   39  A    between atoms: _106  and  _107
REMARK   40  A    between atoms: _106  and  _109
REMARK   41  A    between atoms: _109  and  _110
REMARK   42  A    between atoms: _113  and  _115
REMARK   43  A    between atoms: _115  and  _116
REMARK   44  A    between atoms: _118  and  _120
REMARK   45  A    between atoms: _120  and  _121
REMARK   46  A    between atoms: _120  and  _123
REMARK   47  A    between atoms: _123  and  _124
REMARK   48  A    between atoms: _124  and  _125
REMARK   49  A    between atoms: _125  and  _126
REMARK   50  A    between atoms: _135  and  _137
REMARK   51  A    between atoms: _137  and  _138
REMARK   52  A    between atoms: _137  and  _140
REMARK   53  A    between atoms: _140  and  _141
REMARK   54  A    between atoms: _146  and  _148
REMARK   55  A    between atoms: _148  and  _149
REMARK   56  A    between atoms: _148  and  _151
REMARK   57  A    between atoms: _151  and  _152
REMARK   58  A    between atoms: _152  and  _153
REMARK   59  A    between atoms: _153  and  _154
REMARK   60  A    between atoms: _154  and  _155
REMARK   61  A    between atoms: _159  and  _161
REMARK   62  A    between atoms: _161  and  _162
REMARK   63  A    between atoms: _161  and  _164
REMARK   64  A    between atoms: _164  and  _165
REMARK   65  A    between atoms: _171  and  _173
REMARK   66  A    between atoms: _173  and  _174
REMARK   67  A    between atoms: _173  and  _176
REMARK   68  A    between atoms: _176  and  _177
REMARK   69  A    between atoms: _182  and  _184
REMARK   70  A    between atoms: _184  and  _185
REMARK   71  A    between atoms: _184  and  _187
REMARK   72  A    between atoms: _187  and  _188
REMARK   73  A    between atoms: _193  and  _195
REMARK   74  A    between atoms: _195  and  _196
REMARK   75  A    between atoms: _198  and  _200
REMARK   76  A    between atoms: _200  and  _201
REMARK   77  A    between atoms: _200  and  _203
REMARK   78  A    between atoms: _203  and  _204
REMARK   79  A    between atoms: _204  and  _205
REMARK   80  A    between atoms: _205  and  _206
REMARK   81  A    between atoms: _215  and  _217
REMARK   82  A    between atoms: _217  and  _218
REMARK   83  A    between atoms: _217  and  _220
REMARK   84  A    between atoms: _220  and  _221
REMARK   85  A    between atoms: _225  and  _226
REMARK   86  A    between atoms: _231  and  _233
REMARK   87  A    between atoms: _233  and  _234
REMARK   88  A    between atoms: _237  and  _239
REMARK   89  A    between atoms: _239  and  _240
REMARK   90  A    between atoms: _239  and  _242
REMARK   91  A    between atoms: _242  and  _243
REMARK   92  A    between atoms: _253  and  _255
REMARK   93  A    between atoms: _255  and  _256
REMARK   94  A    between atoms: _255  and  _258
REMARK   95  A    between atoms: _258  and  _259
REMARK   96  A    between atoms: _259  and  _260
REMARK   97  A    between atoms: _263  and  _265
REMARK   98  A    between atoms: _265  and  _266
REMARK   99  A    between atoms: _265  and  _268
REMARK  100  A    between atoms: _268  and  _269
REMARK  101  A    between atoms: _271  and  _273
REMARK  102  A    between atoms: _273  and  _274
REMARK  103  A    between atoms: _273  and  _276
REMARK  104  A    between atoms: _276  and  _277
REMARK  105  A    between atoms: _280  and  _282
REMARK  106  A    between atoms: _282  and  _283
REMARK  107  A    between atoms: _286  and  _288
REMARK  108  A    between atoms: _288  and  _289
REMARK  109  A    between atoms: _288  and  _291
REMARK  110  A    between atoms: _291  and  _292
REMARK  111  A    between atoms: _295  and  _297
REMARK  112  A    between atoms: _297  and  _298
REMARK  113  A    between atoms: _297  and  _300
REMARK  114  A    between atoms: _300  and  _301
REMARK  115  A    between atoms: _301  and  _302
REMARK  116  A    between atoms: _307  and  _309
REMARK  117  A    between atoms: _309  and  _310
REMARK  118  A    between atoms: _313  and  _315
REMARK  119  A    between atoms: _315  and  _316
REMARK  120  A    between atoms: _315  and  _318
REMARK  121  A    between atoms: _318  and  _319
REMARK  122  A    between atoms: _321  and  _323
REMARK  123  A    between atoms: _323  and  _324
REMARK  124  A    between atoms: _326  and  _328
REMARK  125  A    between atoms: _328  and  _329
REMARK  126  A    between atoms: _328  and  _331
REMARK  127  A    between atoms: _331  and  _332
REMARK  128  A    between atoms: _332  and  _333
REMARK  129  A    between atoms: _338  and  _340
REMARK  130  A    between atoms: _340  and  _341
REMARK  131  A    between atoms: _344  and  _345
REMARK  132  A    between atoms: _350  and  _352
REMARK  133  A    between atoms: _352  and  _353
REMARK  134  A    between atoms: _352  and  _355
REMARK  135  A    between atoms: _355  and  _356
REMARK  136  A    between atoms: _361  and  _362
REMARK  137  A    between atoms: _364  and  _366
REMARK  138  A    between atoms: _366  and  _367
REMARK  139  A    between atoms: _366  and  _369
REMARK  140  A    between atoms: _369  and  _370
REMARK  141  A    between atoms: _376  and  _378
REMARK  142  A    between atoms: _378  and  _379
REMARK  143  A    between atoms: _381  and  _383
REMARK  144  A    between atoms: _383  and  _384
REMARK  145  A    between atoms: _383  and  _386
REMARK  146  A    between atoms: _386  and  _387
REMARK  147  A    between atoms: _387  and  _388
REMARK  148  A    between atoms: _393  and  _395
REMARK  149  A    between atoms: _395  and  _396
REMARK  150  A    between atoms: _399  and  _401
REMARK  151  A    between atoms: _401  and  _402
REMARK  152  A    between atoms: _404  and  _406
REMARK  153  A    between atoms: _406  and  _407
REMARK  154  A    between atoms: _406  and  _409
REMARK  155  A    between atoms: _409  and  _410
REMARK  156  A    between atoms: _420  and  _422
REMARK  157  A    between atoms: _422  and  _423
REMARK  158  A    between atoms: _422  and  _425
REMARK  159  A    between atoms: _425  and  _426
REMARK  160  A    between atoms: _432  and  _434
REMARK  161  A    between atoms: _434  and  _435
REMARK  162  A    between atoms: _434  and  _437
REMARK  163  A    between atoms: _440  and  _442
REMARK  164  A    between atoms: _442  and  _443
REMARK  165  A    between atoms: _446  and  _448
REMARK  166  A    between atoms: _448  and  _449
REMARK  167  A    between atoms: _448  and  _451
REMARK  168  A    between atoms: _451  and  _452
REMARK  169  A    between atoms: _452  and  _453
REMARK  170  A    between atoms: _456  and  _458
REMARK  171  A    between atoms: _458  and  _459
REMARK  172  A    between atoms: _458  and  _461
REMARK  173  A    between atoms: _461  and  _462
REMARK  174  A    between atoms: _472  and  _474
REMARK  175  A    between atoms: _474  and  _475
REMARK  176  A    between atoms: _474  and  _477
REMARK  177  A    between atoms: _477  and  _478
REMARK  178  A    between atoms: _478  and  _479
REMARK  179  A    between atoms: _479  and  _480
REMARK  180  A    between atoms: _480  and  _481
REMARK  181  A    between atoms: _485  and  _487
REMARK  182  A    between atoms: _487  and  _488
REMARK  183  A    between atoms: _487  and  _490
REMARK  184  A    between atoms: _490  and  _491
REMARK  185  A    between atoms: _497  and  _499
REMARK  186  A    between atoms: _499  and  _500
REMARK  187  A    between atoms: _499  and  _502
REMARK  188  A    between atoms: _502  and  _503
REMARK  189  A    between atoms: _509  and  _511
REMARK  190  A    between atoms: _511  and  _512
REMARK  191  A    between atoms: _511  and  _514
REMARK  192  A    between atoms: _514  and  _515
REMARK  193  A    between atoms: _515  and  _516
REMARK  194  A    between atoms: _521  and  _523
REMARK  195  A    between atoms: _523  and  _524
REMARK  196  A    between atoms: _527  and  _529
REMARK  197  A    between atoms: _529  and  _530
REMARK  198  A    between atoms: _529  and  _532
REMARK  199  A    between atoms: _532  and  _533
REMARK  200  A    between atoms: _535  and  _537
REMARK  201  A    between atoms: _537  and  _538
REMARK  202  A    between atoms: _540  and  _542
REMARK  203  A    between atoms: _542  and  _543
REMARK  204  A    between atoms: _542  and  _545
REMARK  205  A    between atoms: _545  and  _546
REMARK  206  A    between atoms: _546  and  _547
REMARK  207  A    between atoms: _553  and  _554
REMARK  208  A    between atoms: _559  and  _561
REMARK  209  A    between atoms: _561  and  _562
REMARK  210  A    between atoms: _561  and  _564
REMARK  211  A    between atoms: _564  and  _565
REMARK  212  A    between atoms: _570  and  _571
REMARK  213  A    between atoms: _573  and  _575
REMARK  214  A    between atoms: _575  and  _576
REMARK  215  A    between atoms: _575  and  _578
REMARK  216  A    between atoms: _578  and  _579
REMARK  217  A    between atoms: _579  and  _580
REMARK  218  A    between atoms: _580  and  _581
REMARK  219  A    between atoms: _590  and  _592
REMARK  220  A    between atoms: _592  and  _593
REMARK  221  A    between atoms: _592  and  _595
REMARK  222  A    between atoms: _595  and  _596
REMARK  223  A    between atoms: _601  and  _602
REMARK  224  A    between atoms: _604  and  _606
REMARK  225  A    between atoms: _606  and  _607
REMARK  226  A    between atoms: _606  and  _609
REMARK  227  A    between atoms: _609  and  _610
REMARK  228  A    between atoms: _610  and  _611
REMARK  229  A    between atoms: _614  and  _616
REMARK  230  A    between atoms: _616  and  _617
REMARK  231  A    between atoms: _616  and  _619
REMARK  232  A    between atoms: _619  and  _620
REMARK  233  A    between atoms: _620  and  _621
REMARK  234  A    between atoms: _621  and  _622
REMARK                            x       y       z     vdW  Elec       q    Type
REMARK                         _______ _______ _______ _____ _____    ______ ____
ROOT
ATOM      1  O   HOH     1      -3.625  17.551   3.382  0.00  0.00    +0.000 OA
ENDROOT
TORSDOF 0
REMARK  Name = ../refined-set-2016/4f0c/4f0c_pocket.pdb
REMARK  234 active torsions:
REMARK  status: ('A' for Active; 'I' for Inactive)
REMARK    1  A    between atoms: _1  and  _3
REMARK    2  A    between atoms: _3  and  _4
REMARK    3  A    between atoms: _3  and  _6
REMARK    4  A    between atoms: _6  and  _7
REMARK    5  A    between atoms: _12  and  _14
REMARK    6  A    between atoms: _14  and  _15
REMARK    7  A    between atoms: _14  and  _17
REMARK    8  A    between atoms: _17  and  _18
REMARK    9  A    between atoms: _23  and  _25
REMARK   10  A    between atoms: _25  and  _26
REMARK   11  A    between atoms: _25  and  _28
REMARK   12  A    between atoms: _31  and  _33
REMARK   13  A    between atoms: _33  and  _34
REMARK   14  A    between atoms: _37  and  _38
REMARK   15  A    between atoms: _43  and  _45
REMARK   16  A    between atoms: _45  and  _46
REMARK   17  A    between atoms: _45  and  _48
REMARK   18  A    between atoms: _48  and  _49
REMARK   19  A    between atoms: _54  and  _56
REMARK   20  A    between atoms: _56  and  _57
REMARK   21  A    between atoms: _59  and  _61
REMARK   22  A    between atoms: _61  and  _62
REMARK   23  A    between atoms: _61  and  _64
REMARK   24  A    between atoms: _64  and  _65
REMARK   25  A    between atoms: _75  and  _77
REMARK   26  A    between atoms: _77  and  _78
REMARK   27  A    between atoms: _77  and  _80
REMARK   28  A    between atoms: _80  and  _81
REMARK   29  A    between atoms: _81  and  _82
REMARK   30  A    between atoms: _82  and  _83
REMARK   31  A    between atoms: _83  and  _84
REMARK   32  A    between atoms: _88  and  _90
REMARK   33  A    between atoms: _90  and  _91
REMARK   34  A    between atoms: _90  and  _93
REMARK   35  A    between atoms: _96  and  _98
REMARK   36  A    between atoms: _98  and  _99
REMARK   37  A    between atoms: _98  and  _101
REMARK   38  A    between atoms: _104  and  _106
REMARK   39  A    between atoms: _106  and  _107
REMARK   40  A    between atoms: _106  and  _109
REMARK   41  A    between atoms: _109  and  _110
REMARK   42  A    between atoms: _113  and  _115
REMARK   43  A    between atoms: _115  and  _116
REMARK   44  A    between atoms: _118  and  _120
REMARK   45  A    between atoms: _120  and  _121
REMARK   46  A    between atoms: _120  and  _123
REMARK   47  A    between atoms: _123  and  _124
REMARK   48  A    between atoms: _124  and  _125
REMARK   49  A    between atoms: _125  and  _126
REMARK   50  A    between atoms: _135  and  _137
REMARK   51  A    between atoms: _137  and  _138
REMARK   52  A    between atoms: _137  and  _140
REMARK   53  A    between atoms: _140  and  _141
REMARK   54  A    between atoms: _146  and  _148
REMARK   55  A    between atoms: _148  and  _149
REMARK   56  A    between atoms: _148  and  _151
REMARK   57  A    between atoms: _151  and  _152
REMARK   58  A    between atoms: _152  and  _153
REMARK   59  A    between atoms: _153  and  _154
REMARK   60  A    between atoms: _154  and  _155
REMARK   61  A    between atoms: _159  and  _161
REMARK   62  A    between atoms: _161  and  _162
REMARK   63  A    between atoms: _161  and  _164
REMARK   64  A    between atoms: _164  and  _165
REMARK   65  A    between atoms: _171  and  _173
REMARK   66  A    between atoms: _173  and  _174
REMARK   67  A    between atoms: _173  and  _176
REMARK   68  A    between atoms: _176  and  _177
REMARK   69  A    between atoms: _182  and  _184
REMARK   70  A    between atoms: _184  and  _185
REMARK   71  A    between atoms: _184  and  _187
REMARK   72  A    between atoms: _187  and  _188
REMARK   73  A    between atoms: _193  and  _195
REMARK   74  A    between atoms: _195  and  _196
REMARK   75  A    between atoms: _198  and  _200
REMARK   76  A    between atoms: _200  and  _201
REMARK   77  A    between atoms: _200  and  _203
REMARK   78  A    between atoms: _203  and  _204
REMARK   79  A    between atoms: _204  and  _205
REMARK   80  A    between atoms: _205  and  _206
REMARK   81  A    between atoms: _215  and  _217
REMARK   82  A    between atoms: _217  and  _218
REMARK   83  A    between atoms: _217  and  _220
REMARK   84  A    between atoms: _220  and  _221
REMARK   85  A    between atoms: _225  and  _226
REMARK   86  A    between atoms: _231  and  _233
REMARK   87  A    between atoms: _233  and  _234
REMARK   88  A    between atoms: _237  and  _239
REMARK   89  A    between atoms: _239  and  _240
REMARK   90  A    between atoms: _239  and  _242
REMARK   91  A    between atoms: _242  and  _243
REMARK   92  A    between atoms: _253  and  _255
REMARK   93  A    between atoms: _255  and  _256
REMARK   94  A    between atoms: _255  and  _258
REMARK   95  A    between atoms: _258  and  _259
REMARK   96  A    between atoms: _259  and  _260
REMARK   97  A    between atoms: _263  and  _265
REMARK   98  A    between atoms: _265  and  _266
REMARK   99  A    between atoms: _265  and  _268
REMARK  100  A    between atoms: _268  and  _269
REMARK  101  A    between atoms: _271  and  _273
REMARK  102  A    between atoms: _273  and  _274
REMARK  103  A    between atoms: _273  and  _276
REMARK  104  A    between atoms: _276  and  _277
REMARK  105  A    between atoms: _280  and  _282
REMARK  106  A    between atoms: _282  and  _283
REMARK  107  A    between atoms: _286  and  _288
REMARK  108  A    between atoms: _288  and  _289
REMARK  109  A    between atoms: _288  and  _291
REMARK  110  A    between atoms: _291  and  _292
REMARK  111  A    between atoms: _295  and  _297
REMARK  112  A    between atoms: _297  and  _298
REMARK  113  A    between atoms: _297  and  _300
REMARK  114  A    between atoms: _300  and  _301
REMARK  115  A    between atoms: _301  and  _302
REMARK  116  A    between atoms: _307  and  _309
REMARK  117  A    between atoms: _309  and  _310
REMARK  118  A    between atoms: _313  and  _315
REMARK  119  A    between atoms: _315  and  _316
REMARK  120  A    between atoms: _315  and  _318
REMARK  121  A    between atoms: _318  and  _319
REMARK  122  A    between atoms: _321  and  _323
REMARK  123  A    between atoms: _323  and  _324
REMARK  124  A    between atoms: _326  and  _328
REMARK  125  A    between atoms: _328  and  _329
REMARK  126  A    between atoms: _328  and  _331
REMARK  127  A    between atoms: _331  and  _332
REMARK  128  A    between atoms: _332  and  _333
REMARK  129  A    between atoms: _338  and  _340
REMARK  130  A    between atoms: _340  and  _341
REMARK  131  A    between atoms: _344  and  _345
REMARK  132  A    between atoms: _350  and  _352
REMARK  133  A    between atoms: _352  and  _353
REMARK  134  A    between atoms: _352  and  _355
REMARK  135  A    between atoms: _355  and  _356
REMARK  136  A    between atoms: _361  and  _362
REMARK  137  A    between atoms: _364  and  _366
REMARK  138  A    between atoms: _366  and  _367
REMARK  139  A    between atoms: _366  and  _369
REMARK  140  A    between atoms: _369  and  _370
REMARK  141  A    between atoms: _376  and  _378
REMARK  142  A    between atoms: _378  and  _379
REMARK  143  A    between atoms: _381  and  _383
REMARK  144  A    between atoms: _383  and  _384
REMARK  145  A    between atoms: _383  and  _386
REMARK  146  A    between atoms: _386  and  _387
REMARK  147  A    between atoms: _387  and  _388
REMARK  148  A    between atoms: _393  and  _395
REMARK  149  A    between atoms: _395  and  _396
REMARK  150  A    between atoms: _399  and  _401
REMARK  151  A    between atoms: _401  and  _402
REMARK  152  A    between atoms: _404  and  _406
REMARK  153  A    between atoms: _406  and  _407
REMARK  154  A    between atoms: _406  and  _409
REMARK  155  A    between atoms: _409  and  _410
REMARK  156  A    between atoms: _420  and  _422
REMARK  157  A    between atoms: _422  and  _423
REMARK  158  A    between atoms: _422  and  _425
REMARK  159  A    between atoms: _425  and  _426
REMARK  160  A    between atoms: _432  and  _434
REMARK  161  A    between atoms: _434  and  _435
REMARK  162  A    between atoms: _434  and  _437
REMARK  163  A    between atoms: _440  and  _442
REMARK  164  A    between atoms: _442  and  _443
REMARK  165  A    between atoms: _446  and  _448
REMARK  166  A    between atoms: _448  and  _449
REMARK  167  A    between atoms: _448  and  _451
REMARK  168  A    between atoms: _451  and  _452
REMARK  169  A    between atoms: _452  and  _453
REMARK  170  A    between atoms: _456  and  _458
REMARK  171  A    between atoms: _458  and  _459
REMARK  172  A    between atoms: _458  and  _461
REMARK  173  A    between atoms: _461  and  _462
REMARK  174  A    between atoms: _472  and  _474
REMARK  175  A    between atoms: _474  and  _475
REMARK  176  A    between atoms: _474  and  _477
REMARK  177  A    between atoms: _477  and  _478
REMARK  178  A    between atoms: _478  and  _479
REMARK  179  A    between atoms: _479  and  _480
REMARK  180  A    between atoms: _480  and  _481
REMARK  181  A    between atoms: _485  and  _487
REMARK  182  A    between atoms: _487  and  _488
REMARK  183  A    between atoms: _487  and  _490
REMARK  184  A    between atoms: _490  and  _491
REMARK  185  A    between atoms: _497  and  _499
REMARK  186  A    between atoms: _499  and  _500
REMARK  187  A    between atoms: _499  and  _502
REMARK  188  A    between atoms: _502  and  _503
REMARK  189  A    between atoms: _509  and  _511
REMARK  190  A    between atoms: _511  and  _512
REMARK  191  A    between atoms: _511  and  _514
REMARK  192  A    between atoms: _514  and  _515
REMARK  193  A    between atoms: _515  and  _516
REMARK  194  A    between atoms: _521  and  _523
REMARK  195  A    between atoms: _523  and  _524
REMARK  196  A    between atoms: _527  and  _529
REMARK  197  A    between atoms: _529  and  _530
REMARK  198  A    between atoms: _529  and  _532
REMARK  199  A    between atoms: _532  and  _533
REMARK  200  A    between atoms: _535  and  _537
REMARK  201  A    between atoms: _537  and  _538
REMARK  202  A    between atoms: _540  and  _542
REMARK  203  A    between atoms: _542  and  _543
REMARK  204  A    between atoms: _542  and  _545
REMARK  205  A    between atoms: _545  and  _546
REMARK  206  A    between atoms: _546  and  _547
REMARK  207  A    between atoms: _553  and  _554
REMARK  208  A    between atoms: _559  and  _561
REMARK  209  A    between atoms: _561  and  _562
REMARK  210  A    between atoms: _561  and  _564
REMARK  211  A    between atoms: _564  and  _565
REMARK  212  A    between atoms: _570  and  _571
REMARK  213  A    between atoms: _573  and  _575
REMARK  214  A    between atoms: _575  and  _576
REMARK  215  A    between atoms: _575  and  _578
REMARK  216  A    between atoms: _578  and  _579
REMARK  217  A    between atoms: _579  and  _580
REMARK  218  A    between atoms: _580  and  _581
REMARK  219  A    between atoms: _590  and  _592
REMARK  220  A    between atoms: _592  and  _593
REMARK  221  A    between atoms: _592  and  _595
REMARK  222  A    between atoms: _595  and  _596
REMARK  223  A    between atoms: _601  and  _602
REMARK  224  A    between atoms: _604  and  _606
REMARK  225  A    between atoms: _606  and  _607
REMARK  226  A    between atoms: _606  and  _609
REMARK  227  A    between atoms: _609  and  _610
REMARK  228  A    between atoms: _610  and  _611
REMARK  229  A    between atoms: _614  and  _616
REMARK  230  A    between atoms: _616  and  _617
REMARK  231  A    between atoms: _616  and  _619
REMARK  232  A    between atoms: _619  and  _620
REMARK  233  A    between atoms: _620  and  _621
REMARK  234  A    between atoms: _621  and  _622
REMARK                            x       y       z     vdW  Elec       q    Type
REMARK                         _______ _______ _______ _____ _____    ______ ____
ROOT
ATOM      1  O   HOH     1       5.255  17.201   2.753  0.00  0.00    +0.000 OA
ENDROOT
TORSDOF 0
REMARK  Name = ../refined-set-2016/4f0c/4f0c_pocket.pdb
REMARK  234 active torsions:
REMARK  status: ('A' for Active; 'I' for Inactive)
REMARK    1  A    between atoms: _1  and  _3
REMARK    2  A    between atoms: _3  and  _4
REMARK    3  A    between atoms: _3  and  _6
REMARK    4  A    between atoms: _6  and  _7
REMARK    5  A    between atoms: _12  and  _14
REMARK    6  A    between atoms: _14  and  _15
REMARK    7  A    between atoms: _14  and  _17
REMARK    8  A    between atoms: _17  and  _18
REMARK    9  A    between atoms: _23  and  _25
REMARK   10  A    between atoms: _25  and  _26
REMARK   11  A    between atoms: _25  and  _28
REMARK   12  A    between atoms: _31  and  _33
REMARK   13  A    between atoms: _33  and  _34
REMARK   14  A    between atoms: _37  and  _38
REMARK   15  A    between atoms: _43  and  _45
REMARK   16  A    between atoms: _45  and  _46
REMARK   17  A    between atoms: _45  and  _48
REMARK   18  A    between atoms: _48  and  _49
REMARK   19  A    between atoms: _54  and  _56
REMARK   20  A    between atoms: _56  and  _57
REMARK   21  A    between atoms: _59  and  _61
REMARK   22  A    between atoms: _61  and  _62
REMARK   23  A    between atoms: _61  and  _64
REMARK   24  A    between atoms: _64  and  _65
REMARK   25  A    between atoms: _75  and  _77
REMARK   26  A    between atoms: _77  and  _78
REMARK   27  A    between atoms: _77  and  _80
REMARK   28  A    between atoms: _80  and  _81
REMARK   29  A    between atoms: _81  and  _82
REMARK   30  A    between atoms: _82  and  _83
REMARK   31  A    between atoms: _83  and  _84
REMARK   32  A    between atoms: _88  and  _90
REMARK   33  A    between atoms: _90  and  _91
REMARK   34  A    between atoms: _90  and  _93
REMARK   35  A    between atoms: _96  and  _98
REMARK   36  A    between atoms: _98  and  _99
REMARK   37  A    between atoms: _98  and  _101
REMARK   38  A    between atoms: _104  and  _106
REMARK   39  A    between atoms: _106  and  _107
REMARK   40  A    between atoms: _106  and  _109
REMARK   41  A    between atoms: _109  and  _110
REMARK   42  A    between atoms: _113  and  _115
REMARK   43  A    between atoms: _115  and  _116
REMARK   44  A    between atoms: _118  and  _120
REMARK   45  A    between atoms: _120  and  _121
REMARK   46  A    between atoms: _120  and  _123
REMARK   47  A    between atoms: _123  and  _124
REMARK   48  A    between atoms: _124  and  _125
REMARK   49  A    between atoms: _125  and  _126
REMARK   50  A    between atoms: _135  and  _137
REMARK   51  A    between atoms: _137  and  _138
REMARK   52  A    between atoms: _137  and  _140
REMARK   53  A    between atoms: _140  and  _141
REMARK   54  A    between atoms: _146  and  _148
REMARK   55  A    between atoms: _148  and  _149
REMARK   56  A    between atoms: _148  and  _151
REMARK   57  A    between atoms: _151  and  _152
REMARK   58  A    between atoms: _152  and  _153
REMARK   59  A    between atoms: _153  and  _154
REMARK   60  A    between atoms: _154  and  _155
REMARK   61  A    between atoms: _159  and  _161
REMARK   62  A    between atoms: _161  and  _162
REMARK   63  A    between atoms: _161  and  _164
REMARK   64  A    between atoms: _164  and  _165
REMARK   65  A    between atoms: _171  and  _173
REMARK   66  A    between atoms: _173  and  _174
REMARK   67  A    between atoms: _173  and  _176
REMARK   68  A    between atoms: _176  and  _177
REMARK   69  A    between atoms: _182  and  _184
REMARK   70  A    between atoms: _184  and  _185
REMARK   71  A    between atoms: _184  and  _187
REMARK   72  A    between atoms: _187  and  _188
REMARK   73  A    between atoms: _193  and  _195
REMARK   74  A    between atoms: _195  and  _196
REMARK   75  A    between atoms: _198  and  _200
REMARK   76  A    between atoms: _200  and  _201
REMARK   77  A    between atoms: _200  and  _203
REMARK   78  A    between atoms: _203  and  _204
REMARK   79  A    between atoms: _204  and  _205
REMARK   80  A    between atoms: _205  and  _206
REMARK   81  A    between atoms: _215  and  _217
REMARK   82  A    between atoms: _217  and  _218
REMARK   83  A    between atoms: _217  and  _220
REMARK   84  A    between atoms: _220  and  _221
REMARK   85  A    between atoms: _225  and  _226
REMARK   86  A    between atoms: _231  and  _233
REMARK   87  A    between atoms: _233  and  _234
REMARK   88  A    between atoms: _237  and  _239
REMARK   89  A    between atoms: _239  and  _240
REMARK   90  A    between atoms: _239  and  _242
REMARK   91  A    between atoms: _242  and  _243
REMARK   92  A    between atoms: _253  and  _255
REMARK   93  A    between atoms: _255  and  _256
REMARK   94  A    between atoms: _255  and  _258
REMARK   95  A    between atoms: _258  and  _259
REMARK   96  A    between atoms: _259  and  _260
REMARK   97  A    between atoms: _263  and  _265
REMARK   98  A    between atoms: _265  and  _266
REMARK   99  A    between atoms: _265  and  _268
REMARK  100  A    between atoms: _268  and  _269
REMARK  101  A    between atoms: _271  and  _273
REMARK  102  A    between atoms: _273  and  _274
REMARK  103  A    between atoms: _273  and  _276
REMARK  104  A    between atoms: _276  and  _277
REMARK  105  A    between atoms: _280  and  _282
REMARK  106  A    between atoms: _282  and  _283
REMARK  107  A    between atoms: _286  and  _288
REMARK  108  A    between atoms: _288  and  _289
REMARK  109  A    between atoms: _288  and  _291
REMARK  110  A    between atoms: _291  and  _292
REMARK  111  A    between atoms: _295  and  _297
REMARK  112  A    between atoms: _297  and  _298
REMARK  113  A    between atoms: _297  and  _300
REMARK  114  A    between atoms: _300  and  _301
REMARK  115  A    between atoms: _301  and  _302
REMARK  116  A    between atoms: _307  and  _309
REMARK  117  A    between atoms: _309  and  _310
REMARK  118  A    between atoms: _313  and  _315
REMARK  119  A    between atoms: _315  and  _316
REMARK  120  A    between atoms: _315  and  _318
REMARK  121  A    between atoms: _318  and  _319
REMARK  122  A    between atoms: _321  and  _323
REMARK  123  A    between atoms: _323  and  _324
REMARK  124  A    between atoms: _326  and  _328
REMARK  125  A    between atoms: _328  and  _329
REMARK  126  A    between atoms: _328  and  _331
REMARK  127  A    between atoms: _331  and  _332
REMARK  128  A    between atoms: _332  and  _333
REMARK  129  A    between atoms: _338  and  _340
REMARK  130  A    between atoms: _340  and  _341
REMARK  131  A    between atoms: _344  and  _345
REMARK  132  A    between atoms: _350  and  _352
REMARK  133  A    between atoms: _352  and  _353
REMARK  134  A    between atoms: _352  and  _355
REMARK  135  A    between atoms: _355  and  _356
REMARK  136  A    between atoms: _361  and  _362
REMARK  137  A    between atoms: _364  and  _366
REMARK  138  A    between atoms: _366  and  _367
REMARK  139  A    between atoms: _366  and  _369
REMARK  140  A    between atoms: _369  and  _370
REMARK  141  A    between atoms: _376  and  _378
REMARK  142  A    between atoms: _378  and  _379
REMARK  143  A    between atoms: _381  and  _383
REMARK  144  A    between atoms: _383  and  _384
REMARK  145  A    between atoms: _383  and  _386
REMARK  146  A    between atoms: _386  and  _387
REMARK  147  A    between atoms: _387  and  _388
REMARK  148  A    between atoms: _393  and  _395
REMARK  149  A    between atoms: _395  and  _396
REMARK  150  A    between atoms: _399  and  _401
REMARK  151  A    between atoms: _401  and  _402
REMARK  152  A    between atoms: _404  and  _406
REMARK  153  A    between atoms: _406  and  _407
REMARK  154  A    between atoms: _406  and  _409
REMARK  155  A    between atoms: _409  and  _410
REMARK  156  A    between atoms: _420  and  _422
REMARK  157  A    between atoms: _422  and  _423
REMARK  158  A    between atoms: _422  and  _425
REMARK  159  A    between atoms: _425  and  _426
REMARK  160  A    between atoms: _432  and  _434
REMARK  161  A    between atoms: _434  and  _435
REMARK  162  A    between atoms: _434  and  _437
REMARK  163  A    between atoms: _440  and  _442
REMARK  164  A    between atoms: _442  and  _443
REMARK  165  A    between atoms: _446  and  _448
REMARK  166  A    between atoms: _448  and  _449
REMARK  167  A    between atoms: _448  and  _451
REMARK  168  A    between atoms: _451  and  _452
REMARK  169  A    between atoms: _452  and  _453
REMARK  170  A    between atoms: _456  and  _458
REMARK  171  A    between atoms: _458  and  _459
REMARK  172  A    between atoms: _458  and  _461
REMARK  173  A    between atoms: _461  and  _462
REMARK  174  A    between atoms: _472  and  _474
REMARK  175  A    between atoms: _474  and  _475
REMARK  176  A    between atoms: _474  and  _477
REMARK  177  A    between atoms: _477  and  _478
REMARK  178  A    between atoms: _478  and  _479
REMARK  179  A    between atoms: _479  and  _480
REMARK  180  A    between atoms: _480  and  _481
REMARK  181  A    between atoms: _485  and  _487
REMARK  182  A    between atoms: _487  and  _488
REMARK  183  A    between atoms: _487  and  _490
REMARK  184  A    between atoms: _490  and  _491
REMARK  185  A    between atoms: _497  and  _499
REMARK  186  A    between atoms: _499  and  _500
REMARK  187  A    between atoms: _499  and  _502
REMARK  188  A    between atoms: _502  and  _503
REMARK  189  A    between atoms: _509  and  _511
REMARK  190  A    between atoms: _511  and  _512
REMARK  191  A    between atoms: _511  and  _514
REMARK  192  A    between atoms: _514  and  _515
REMARK  193  A    between atoms: _515  and  _516
REMARK  194  A    between atoms: _521  and  _523
REMARK  195  A    between atoms: _523  and  _524
REMARK  196  A    between atoms: _527  and  _529
REMARK  197  A    between atoms: _529  and  _530
REMARK  198  A    between atoms: _529  and  _532
REMARK  199  A    between atoms: _532  and  _533
REMARK  200  A    between atoms: _535  and  _537
REMARK  201  A    between atoms: _537  and  _538
REMARK  202  A    between atoms: _540  and  _542
REMARK  203  A    between atoms: _542  and  _543
REMARK  204  A    between atoms: _542  and  _545
REMARK  205  A    between atoms: _545  and  _546
REMARK  206  A    between atoms: _546  and  _547
REMARK  207  A    between atoms: _553  and  _554
REMARK  208  A    between atoms: _559  and  _561
REMARK  209  A    between atoms: _561  and  _562
REMARK  210  A    between atoms: _561  and  _564
REMARK  211  A    between atoms: _564  and  _565
REMARK  212  A    between atoms: _570  and  _571
REMARK  213  A    between atoms: _573  and  _575
REMARK  214  A    between atoms: _575  and  _576
REMARK  215  A    between atoms: _575  and  _578
REMARK  216  A    between atoms: _578  and  _579
REMARK  217  A    between atoms: _579  and  _580
REMARK  218  A    between atoms: _580  and  _581
REMARK  219  A    between atoms: _590  and  _592
REMARK  220  A    between atoms: _592  and  _593
REMARK  221  A    between atoms: _592  and  _595
REMARK  222  A    between atoms: _595  and  _596
REMARK  223  A    between atoms: _601  and  _602
REMARK  224  A    between atoms: _604  and  _606
REMARK  225  A    between atoms: _606  and  _607
REMARK  226  A    between atoms: _606  and  _609
REMARK  227  A    between atoms: _609  and  _610
REMARK  228  A    between atoms: _610  and  _611
REMARK  229  A    between atoms: _614  and  _616
REMARK  230  A    between atoms: _616  and  _617
REMARK  231  A    between atoms: _616  and  _619
REMARK  232  A    between atoms: _619  and  _620
REMARK  233  A    between atoms: _620  and  _621
REMARK  234  A    between atoms: _621  and  _622
REMARK                            x       y       z     vdW  Elec       q    Type
REMARK                         _______ _______ _______ _____ _____    ______ ____
ROOT
ATOM      1  O   HOH     1      -4.167  14.659   2.460  0.00  0.00    +0.000 OA
ENDROOT
TORSDOF 0
REMARK  Name = ../refined-set-2016/4f0c/4f0c_pocket.pdb
REMARK  234 active torsions:
REMARK  status: ('A' for Active; 'I' for Inactive)
REMARK    1  A    between atoms: _1  and  _3
REMARK    2  A    between atoms: _3  and  _4
REMARK    3  A    between atoms: _3  and  _6
REMARK    4  A    between atoms: _6  and  _7
REMARK    5  A    between atoms: _12  and  _14
REMARK    6  A    between atoms: _14  and  _15
REMARK    7  A    between atoms: _14  and  _17
REMARK    8  A    between atoms: _17  and  _18
REMARK    9  A    between atoms: _23  and  _25
REMARK   10  A    between atoms: _25  and  _26
REMARK   11  A    between atoms: _25  and  _28
REMARK   12  A    between atoms: _31  and  _33
REMARK   13  A    between atoms: _33  and  _34
REMARK   14  A    between atoms: _37  and  _38
REMARK   15  A    between atoms: _43  and  _45
REMARK   16  A    between atoms: _45  and  _46
REMARK   17  A    between atoms: _45  and  _48
REMARK   18  A    between atoms: _48  and  _49
REMARK   19  A    between atoms: _54  and  _56
REMARK   20  A    between atoms: _56  and  _57
REMARK   21  A    between atoms: _59  and  _61
REMARK   22  A    between atoms: _61  and  _62
REMARK   23  A    between atoms: _61  and  _64
REMARK   24  A    between atoms: _64  and  _65
REMARK   25  A    between atoms: _75  and  _77
REMARK   26  A    between atoms: _77  and  _78
REMARK   27  A    between atoms: _77  and  _80
REMARK   28  A    between atoms: _80  and  _81
REMARK   29  A    between atoms: _81  and  _82
REMARK   30  A    between atoms: _82  and  _83
REMARK   31  A    between atoms: _83  and  _84
REMARK   32  A    between atoms: _88  and  _90
REMARK   33  A    between atoms: _90  and  _91
REMARK   34  A    between atoms: _90  and  _93
REMARK   35  A    between atoms: _96  and  _98
REMARK   36  A    between atoms: _98  and  _99
REMARK   37  A    between atoms: _98  and  _101
REMARK   38  A    between atoms: _104  and  _106
REMARK   39  A    between atoms: _106  and  _107
REMARK   40  A    between atoms: _106  and  _109
REMARK   41  A    between atoms: _109  and  _110
REMARK   42  A    between atoms: _113  and  _115
REMARK   43  A    between atoms: _115  and  _116
REMARK   44  A    between atoms: _118  and  _120
REMARK   45  A    between atoms: _120  and  _121
REMARK   46  A    between atoms: _120  and  _123
REMARK   47  A    between atoms: _123  and  _124
REMARK   48  A    between atoms: _124  and  _125
REMARK   49  A    between atoms: _125  and  _126
REMARK   50  A    between atoms: _135  and  _137
REMARK   51  A    between atoms: _137  and  _138
REMARK   52  A    between atoms: _137  and  _140
REMARK   53  A    between atoms: _140  and  _141
REMARK   54  A    between atoms: _146  and  _148
REMARK   55  A    between atoms: _148  and  _149
REMARK   56  A    between atoms: _148  and  _151
REMARK   57  A    between atoms: _151  and  _152
REMARK   58  A    between atoms: _152  and  _153
REMARK   59  A    between atoms: _153  and  _154
REMARK   60  A    between atoms: _154  and  _155
REMARK   61  A    between atoms: _159  and  _161
REMARK   62  A    between atoms: _161  and  _162
REMARK   63  A    between atoms: _161  and  _164
REMARK   64  A    between atoms: _164  and  _165
REMARK   65  A    between atoms: _171  and  _173
REMARK   66  A    between atoms: _173  and  _174
REMARK   67  A    between atoms: _173  and  _176
REMARK   68  A    between atoms: _176  and  _177
REMARK   69  A    between atoms: _182  and  _184
REMARK   70  A    between atoms: _184  and  _185
REMARK   71  A    between atoms: _184  and  _187
REMARK   72  A    between atoms: _187  and  _188
REMARK   73  A    between atoms: _193  and  _195
REMARK   74  A    between atoms: _195  and  _196
REMARK   75  A    between atoms: _198  and  _200
REMARK   76  A    between atoms: _200  and  _201
REMARK   77  A    between atoms: _200  and  _203
REMARK   78  A    between atoms: _203  and  _204
REMARK   79  A    between atoms: _204  and  _205
REMARK   80  A    between atoms: _205  and  _206
REMARK   81  A    between atoms: _215  and  _217
REMARK   82  A    between atoms: _217  and  _218
REMARK   83  A    between atoms: _217  and  _220
REMARK   84  A    between atoms: _220  and  _221
REMARK   85  A    between atoms: _225  and  _226
REMARK   86  A    between atoms: _231  and  _233
REMARK   87  A    between atoms: _233  and  _234
REMARK   88  A    between atoms: _237  and  _239
REMARK   89  A    between atoms: _239  and  _240
REMARK   90  A    between atoms: _239  and  _242
REMARK   91  A    between atoms: _242  and  _243
REMARK   92  A    between atoms: _253  and  _255
REMARK   93  A    between atoms: _255  and  _256
REMARK   94  A    between atoms: _255  and  _258
REMARK   95  A    between atoms: _258  and  _259
REMARK   96  A    between atoms: _259  and  _260
REMARK   97  A    between atoms: _263  and  _265
REMARK   98  A    between atoms: _265  and  _266
REMARK   99  A    between atoms: _265  and  _268
REMARK  100  A    between atoms: _268  and  _269
REMARK  101  A    between atoms: _271  and  _273
REMARK  102  A    between atoms: _273  and  _274
REMARK  103  A    between atoms: _273  and  _276
REMARK  104  A    between atoms: _276  and  _277
REMARK  105  A    between atoms: _280  and  _282
REMARK  106  A    between atoms: _282  and  _283
REMARK  107  A    between atoms: _286  and  _288
REMARK  108  A    between atoms: _288  and  _289
REMARK  109  A    between atoms: _288  and  _291
REMARK  110  A    between atoms: _291  and  _292
REMARK  111  A    between atoms: _295  and  _297
REMARK  112  A    between atoms: _297  and  _298
REMARK  113  A    between atoms: _297  and  _300
REMARK  114  A    between atoms: _300  and  _301
REMARK  115  A    between atoms: _301  and  _302
REMARK  116  A    between atoms: _307  and  _309
REMARK  117  A    between atoms: _309  and  _310
REMARK  118  A    between atoms: _313  and  _315
REMARK  119  A    between atoms: _315  and  _316
REMARK  120  A    between atoms: _315  and  _318
REMARK  121  A    between atoms: _318  and  _319
REMARK  122  A    between atoms: _321  and  _323
REMARK  123  A    between atoms: _323  and  _324
REMARK  124  A    between atoms: _326  and  _328
REMARK  125  A    between atoms: _328  and  _329
REMARK  126  A    between atoms: _328  and  _331
REMARK  127  A    between atoms: _331  and  _332
REMARK  128  A    between atoms: _332  and  _333
REMARK  129  A    between atoms: _338  and  _340
REMARK  130  A    between atoms: _340  and  _341
REMARK  131  A    between atoms: _344  and  _345
REMARK  132  A    between atoms: _350  and  _352
REMARK  133  A    between atoms: _352  and  _353
REMARK  134  A    between atoms: _352  and  _355
REMARK  135  A    between atoms: _355  and  _356
REMARK  136  A    between atoms: _361  and  _362
REMARK  137  A    between atoms: _364  and  _366
REMARK  138  A    between atoms: _366  and  _367
REMARK  139  A    between atoms: _366  and  _369
REMARK  140  A    between atoms: _369  and  _370
REMARK  141  A    between atoms: _376  and  _378
REMARK  142  A    between atoms: _378  and  _379
REMARK  143  A    between atoms: _381  and  _383
REMARK  144  A    between atoms: _383  and  _384
REMARK  145  A    between atoms: _383  and  _386
REMARK  146  A    between atoms: _386  and  _387
REMARK  147  A    between atoms: _387  and  _388
REMARK  148  A    between atoms: _393  and  _395
REMARK  149  A    between atoms: _395  and  _396
REMARK  150  A    between atoms: _399  and  _401
REMARK  151  A    between atoms: _401  and  _402
REMARK  152  A    between atoms: _404  and  _406
REMARK  153  A    between atoms: _406  and  _407
REMARK  154  A    between atoms: _406  and  _409
REMARK  155  A    between atoms: _409  and  _410
REMARK  156  A    between atoms: _420  and  _422
REMARK  157  A    between atoms: _422  and  _423
REMARK  158  A    between atoms: _422  and  _425
REMARK  159  A    between atoms: _425  and  _426
REMARK  160  A    between atoms: _432  and  _434
REMARK  161  A    between atoms: _434  and  _435
REMARK  162  A    between atoms: _434  and  _437
REMARK  163  A    between atoms: _440  and  _442
REMARK  164  A    between atoms: _442  and  _443
REMARK  165  A    between atoms: _446  and  _448
REMARK  166  A    between atoms: _448  and  _449
REMARK  167  A    between atoms: _448  and  _451
REMARK  168  A    between atoms: _451  and  _452
REMARK  169  A    between atoms: _452  and  _453
REMARK  170  A    between atoms: _456  and  _458
REMARK  171  A    between atoms: _458  and  _459
REMARK  172  A    between atoms: _458  and  _461
REMARK  173  A    between atoms: _461  and  _462
REMARK  174  A    between atoms: _472  and  _474
REMARK  175  A    between atoms: _474  and  _475
REMARK  176  A    between atoms: _474  and  _477
REMARK  177  A    between atoms: _477  and  _478
REMARK  178  A    between atoms: _478  and  _479
REMARK  179  A    between atoms: _479  and  _480
REMARK  180  A    between atoms: _480  and  _481
REMARK  181  A    between atoms: _485  and  _487
REMARK  182  A    between atoms: _487  and  _488
REMARK  183  A    between atoms: _487  and  _490
REMARK  184  A    between atoms: _490  and  _491
REMARK  185  A    between atoms: _497  and  _499
REMARK  186  A    between atoms: _499  and  _500
REMARK  187  A    between atoms: _499  and  _502
REMARK  188  A    between atoms: _502  and  _503
REMARK  189  A    between atoms: _509  and  _511
REMARK  190  A    between atoms: _511  and  _512
REMARK  191  A    between atoms: _511  and  _514
REMARK  192  A    between atoms: _514  and  _515
REMARK  193  A    between atoms: _515  and  _516
REMARK  194  A    between atoms: _521  and  _523
REMARK  195  A    between atoms: _523  and  _524
REMARK  196  A    between atoms: _527  and  _529
REMARK  197  A    between atoms: _529  and  _530
REMARK  198  A    between atoms: _529  and  _532
REMARK  199  A    between atoms: _532  and  _533
REMARK  200  A    between atoms: _535  and  _537
REMARK  201  A    between atoms: _537  and  _538
REMARK  202  A    between atoms: _540  and  _542
REMARK  203  A    between atoms: _542  and  _543
REMARK  204  A    between atoms: _542  and  _545
REMARK  205  A    between atoms: _545  and  _546
REMARK  206  A    between atoms: _546  and  _547
REMARK  207  A    between atoms: _553  and  _554
REMARK  208  A    between atoms: _559  and  _561
REMARK  209  A    between atoms: _561  and  _562
REMARK  210  A    between atoms: _561  and  _564
REMARK  211  A    between atoms: _564  and  _565
REMARK  212  A    between atoms: _570  and  _571
REMARK  213  A    between atoms: _573  and  _575
REMARK  214  A    between atoms: _575  and  _576
REMARK  215  A    between atoms: _575  and  _578
REMARK  216  A    between atoms: _578  and  _579
REMARK  217  A    between atoms: _579  and  _580
REMARK  218  A    between atoms: _580  and  _581
REMARK  219  A    between atoms: _590  and  _592
REMARK  220  A    between atoms: _592  and  _593
REMARK  221  A    between atoms: _592  and  _595
REMARK  222  A    between atoms: _595  and  _596
REMARK  223  A    between atoms: _601  and  _602
REMARK  224  A    between atoms: _604  and  _606
REMARK  225  A    between atoms: _606  and  _607
REMARK  226  A    between atoms: _606  and  _609
REMARK  227  A    between atoms: _609  and  _610
REMARK  228  A    between atoms: _610  and  _611
REMARK  229  A    between atoms: _614  and  _616
REMARK  230  A    between atoms: _616  and  _617
REMARK  231  A    between atoms: _616  and  _619
REMARK  232  A    between atoms: _619  and  _620
REMARK  233  A    between atoms: _620  and  _621
REMARK  234  A    between atoms: _621  and  _622
REMARK                            x       y       z     vdW  Elec       q    Type
REMARK                         _______ _______ _______ _____ _____    ______ ____
ROOT
ATOM      1  O   HOH     1      -4.817  10.916   0.104  0.00  0.00    +0.000 OA
ENDROOT
TORSDOF 0
REMARK  Name = ../refined-set-2016/4f0c/4f0c_pocket.pdb
REMARK  234 active torsions:
REMARK  status: ('A' for Active; 'I' for Inactive)
REMARK    1  A    between atoms: _1  and  _3
REMARK    2  A    between atoms: _3  and  _4
REMARK    3  A    between atoms: _3  and  _6
REMARK    4  A    between atoms: _6  and  _7
REMARK    5  A    between atoms: _12  and  _14
REMARK    6  A    between atoms: _14  and  _15
REMARK    7  A    between atoms: _14  and  _17
REMARK    8  A    between atoms: _17  and  _18
REMARK    9  A    between atoms: _23  and  _25
REMARK   10  A    between atoms: _25  and  _26
REMARK   11  A    between atoms: _25  and  _28
REMARK   12  A    between atoms: _31  and  _33
REMARK   13  A    between atoms: _33  and  _34
REMARK   14  A    between atoms: _37  and  _38
REMARK   15  A    between atoms: _43  and  _45
REMARK   16  A    between atoms: _45  and  _46
REMARK   17  A    between atoms: _45  and  _48
REMARK   18  A    between atoms: _48  and  _49
REMARK   19  A    between atoms: _54  and  _56
REMARK   20  A    between atoms: _56  and  _57
REMARK   21  A    between atoms: _59  and  _61
REMARK   22  A    between atoms: _61  and  _62
REMARK   23  A    between atoms: _61  and  _64
REMARK   24  A    between atoms: _64  and  _65
REMARK   25  A    between atoms: _75  and  _77
REMARK   26  A    between atoms: _77  and  _78
REMARK   27  A    between atoms: _77  and  _80
REMARK   28  A    between atoms: _80  and  _81
REMARK   29  A    between atoms: _81  and  _82
REMARK   30  A    between atoms: _82  and  _83
REMARK   31  A    between atoms: _83  and  _84
REMARK   32  A    between atoms: _88  and  _90
REMARK   33  A    between atoms: _90  and  _91
REMARK   34  A    between atoms: _90  and  _93
REMARK   35  A    between atoms: _96  and  _98
REMARK   36  A    between atoms: _98  and  _99
REMARK   37  A    between atoms: _98  and  _101
REMARK   38  A    between atoms: _104  and  _106
REMARK   39  A    between atoms: _106  and  _107
REMARK   40  A    between atoms: _106  and  _109
REMARK   41  A    between atoms: _109  and  _110
REMARK   42  A    between atoms: _113  and  _115
REMARK   43  A    between atoms: _115  and  _116
REMARK   44  A    between atoms: _118  and  _120
REMARK   45  A    between atoms: _120  and  _121
REMARK   46  A    between atoms: _120  and  _123
REMARK   47  A    between atoms: _123  and  _124
REMARK   48  A    between atoms: _124  and  _125
REMARK   49  A    between atoms: _125  and  _126
REMARK   50  A    between atoms: _135  and  _137
REMARK   51  A    between atoms: _137  and  _138
REMARK   52  A    between atoms: _137  and  _140
REMARK   53  A    between atoms: _140  and  _141
REMARK   54  A    between atoms: _146  and  _148
REMARK   55  A    between atoms: _148  and  _149
REMARK   56  A    between atoms: _148  and  _151
REMARK   57  A    between atoms: _151  and  _152
REMARK   58  A    between atoms: _152  and  _153
REMARK   59  A    between atoms: _153  and  _154
REMARK   60  A    between atoms: _154  and  _155
REMARK   61  A    between atoms: _159  and  _161
REMARK   62  A    between atoms: _161  and  _162
REMARK   63  A    between atoms: _161  and  _164
REMARK   64  A    between atoms: _164  and  _165
REMARK   65  A    between atoms: _171  and  _173
REMARK   66  A    between atoms: _173  and  _174
REMARK   67  A    between atoms: _173  and  _176
REMARK   68  A    between atoms: _176  and  _177
REMARK   69  A    between atoms: _182  and  _184
REMARK   70  A    between atoms: _184  and  _185
REMARK   71  A    between atoms: _184  and  _187
REMARK   72  A    between atoms: _187  and  _188
REMARK   73  A    between atoms: _193  and  _195
REMARK   74  A    between atoms: _195  and  _196
REMARK   75  A    between atoms: _198  and  _200
REMARK   76  A    between atoms: _200  and  _201
REMARK   77  A    between atoms: _200  and  _203
REMARK   78  A    between atoms: _203  and  _204
REMARK   79  A    between atoms: _204  and  _205
REMARK   80  A    between atoms: _205  and  _206
REMARK   81  A    between atoms: _215  and  _217
REMARK   82  A    between atoms: _217  and  _218
REMARK   83  A    between atoms: _217  and  _220
REMARK   84  A    between atoms: _220  and  _221
REMARK   85  A    between atoms: _225  and  _226
REMARK   86  A    between atoms: _231  and  _233
REMARK   87  A    between atoms: _233  and  _234
REMARK   88  A    between atoms: _237  and  _239
REMARK   89  A    between atoms: _239  and  _240
REMARK   90  A    between atoms: _239  and  _242
REMARK   91  A    between atoms: _242  and  _243
REMARK   92  A    between atoms: _253  and  _255
REMARK   93  A    between atoms: _255  and  _256
REMARK   94  A    between atoms: _255  and  _258
REMARK   95  A    between atoms: _258  and  _259
REMARK   96  A    between atoms: _259  and  _260
REMARK   97  A    between atoms: _263  and  _265
REMARK   98  A    between atoms: _265  and  _266
REMARK   99  A    between atoms: _265  and  _268
REMARK  100  A    between atoms: _268  and  _269
REMARK  101  A    between atoms: _271  and  _273
REMARK  102  A    between atoms: _273  and  _274
REMARK  103  A    between atoms: _273  and  _276
REMARK  104  A    between atoms: _276  and  _277
REMARK  105  A    between atoms: _280  and  _282
REMARK  106  A    between atoms: _282  and  _283
REMARK  107  A    between atoms: _286  and  _288
REMARK  108  A    between atoms: _288  and  _289
REMARK  109  A    between atoms: _288  and  _291
REMARK  110  A    between atoms: _291  and  _292
REMARK  111  A    between atoms: _295  and  _297
REMARK  112  A    between atoms: _297  and  _298
REMARK  113  A    between atoms: _297  and  _300
REMARK  114  A    between atoms: _300  and  _301
REMARK  115  A    between atoms: _301  and  _302
REMARK  116  A    between atoms: _307  and  _309
REMARK  117  A    between atoms: _309  and  _310
REMARK  118  A    between atoms: _313  and  _315
REMARK  119  A    between atoms: _315  and  _316
REMARK  120  A    between atoms: _315  and  _318
REMARK  121  A    between atoms: _318  and  _319
REMARK  122  A    between atoms: _321  and  _323
REMARK  123  A    between atoms: _323  and  _324
REMARK  124  A    between atoms: _326  and  _328
REMARK  125  A    between atoms: _328  and  _329
REMARK  126  A    between atoms: _328  and  _331
REMARK  127  A    between atoms: _331  and  _332
REMARK  128  A    between atoms: _332  and  _333
REMARK  129  A    between atoms: _338  and  _340
REMARK  130  A    between atoms: _340  and  _341
REMARK  131  A    between atoms: _344  and  _345
REMARK  132  A    between atoms: _350  and  _352
REMARK  133  A    between atoms: _352  and  _353
REMARK  134  A    between atoms: _352  and  _355
REMARK  135  A    between atoms: _355  and  _356
REMARK  136  A    between atoms: _361  and  _362
REMARK  137  A    between atoms: _364  and  _366
REMARK  138  A    between atoms: _366  and  _367
REMARK  139  A    between atoms: _366  and  _369
REMARK  140  A    between atoms: _369  and  _370
REMARK  141  A    between atoms: _376  and  _378
REMARK  142  A    between atoms: _378  and  _379
REMARK  143  A    between atoms: _381  and  _383
REMARK  144  A    between atoms: _383  and  _384
REMARK  145  A    between atoms: _383  and  _386
REMARK  146  A    between atoms: _386  and  _387
REMARK  147  A    between atoms: _387  and  _388
REMARK  148  A    between atoms: _393  and  _395
REMARK  149  A    between atoms: _395  and  _396
REMARK  150  A    between atoms: _399  and  _401
REMARK  151  A    between atoms: _401  and  _402
REMARK  152  A    between atoms: _404  and  _406
REMARK  153  A    between atoms: _406  and  _407
REMARK  154  A    between atoms: _406  and  _409
REMARK  155  A    between atoms: _409  and  _410
REMARK  156  A    between atoms: _420  and  _422
REMARK  157  A    between atoms: _422  and  _423
REMARK  158  A    between atoms: _422  and  _425
REMARK  159  A    between atoms: _425  and  _426
REMARK  160  A    between atoms: _432  and  _434
REMARK  161  A    between atoms: _434  and  _435
REMARK  162  A    between atoms: _434  and  _437
REMARK  163  A    between atoms: _440  and  _442
REMARK  164  A    between atoms: _442  and  _443
REMARK  165  A    between atoms: _446  and  _448
REMARK  166  A    between atoms: _448  and  _449
REMARK  167  A    between atoms: _448  and  _451
REMARK  168  A    between atoms: _451  and  _452
REMARK  169  A    between atoms: _452  and  _453
REMARK  170  A    between atoms: _456  and  _458
REMARK  171  A    between atoms: _458  and  _459
REMARK  172  A    between atoms: _458  and  _461
REMARK  173  A    between atoms: _461  and  _462
REMARK  174  A    between atoms: _472  and  _474
REMARK  175  A    between atoms: _474  and  _475
REMARK  176  A    between atoms: _474  and  _477
REMARK  177  A    between atoms: _477  and  _478
REMARK  178  A    between atoms: _478  and  _479
REMARK  179  A    between atoms: _479  and  _480
REMARK  180  A    between atoms: _480  and  _481
REMARK  181  A    between atoms: _485  and  _487
REMARK  182  A    between atoms: _487  and  _488
REMARK  183  A    between atoms: _487  and  _490
REMARK  184  A    between atoms: _490  and  _491
REMARK  185  A    between atoms: _497  and  _499
REMARK  186  A    between atoms: _499  and  _500
REMARK  187  A    between atoms: _499  and  _502
REMARK  188  A    between atoms: _502  and  _503
REMARK  189  A    between atoms: _509  and  _511
REMARK  190  A    between atoms: _511  and  _512
REMARK  191  A    between atoms: _511  and  _514
REMARK  192  A    between atoms: _514  and  _515
REMARK  193  A    between atoms: _515  and  _516
REMARK  194  A    between atoms: _521  and  _523
REMARK  195  A    between atoms: _523  and  _524
REMARK  196  A    between atoms: _527  and  _529
REMARK  197  A    between atoms: _529  and  _530
REMARK  198  A    between atoms: _529  and  _532
REMARK  199  A    between atoms: _532  and  _533
REMARK  200  A    between atoms: _535  and  _537
REMARK  201  A    between atoms: _537  and  _538
REMARK  202  A    between atoms: _540  and  _542
REMARK  203  A    between atoms: _542  and  _543
REMARK  204  A    between atoms: _542  and  _545
REMARK  205  A    between atoms: _545  and  _546
REMARK  206  A    between atoms: _546  and  _547
REMARK  207  A    between atoms: _553  and  _554
REMARK  208  A    between atoms: _559  and  _561
REMARK  209  A    between atoms: _561  and  _562
REMARK  210  A    between atoms: _561  and  _564
REMARK  211  A    between atoms: _564  and  _565
REMARK  212  A    between atoms: _570  and  _571
REMARK  213  A    between atoms: _573  and  _575
REMARK  214  A    between atoms: _575  and  _576
REMARK  215  A    between atoms: _575  and  _578
REMARK  216  A    between atoms: _578  and  _579
REMARK  217  A    between atoms: _579  and  _580
REMARK  218  A    between atoms: _580  and  _581
REMARK  219  A    between atoms: _590  and  _592
REMARK  220  A    between atoms: _592  and  _593
REMARK  221  A    between atoms: _592  and  _595
REMARK  222  A    between atoms: _595  and  _596
REMARK  223  A    between atoms: _601  and  _602
REMARK  224  A    between atoms: _604  and  _606
REMARK  225  A    between atoms: _606  and  _607
REMARK  226  A    between atoms: _606  and  _609
REMARK  227  A    between atoms: _609  and  _610
REMARK  228  A    between atoms: _610  and  _611
REMARK  229  A    between atoms: _614  and  _616
REMARK  230  A    between atoms: _616  and  _617
REMARK  231  A    between atoms: _616  and  _619
REMARK  232  A    between atoms: _619  and  _620
REMARK  233  A    between atoms: _620  and  _621
REMARK  234  A    between atoms: _621  and  _622
REMARK                            x       y       z     vdW  Elec       q    Type
REMARK                         _______ _______ _______ _____ _____    ______ ____
ROOT
ATOM      1  O   HOH     1       1.155  17.282  -0.716  0.00  0.00    +0.000 OA
ENDROOT
TORSDOF 0
REMARK  Name = ../refined-set-2016/4f0c/4f0c_pocket.pdb
REMARK  234 active torsions:
REMARK  status: ('A' for Active; 'I' for Inactive)
REMARK    1  A    between atoms: _1  and  _3
REMARK    2  A    between atoms: _3  and  _4
REMARK    3  A    between atoms: _3  and  _6
REMARK    4  A    between atoms: _6  and  _7
REMARK    5  A    between atoms: _12  and  _14
REMARK    6  A    between atoms: _14  and  _15
REMARK    7  A    between atoms: _14  and  _17
REMARK    8  A    between atoms: _17  and  _18
REMARK    9  A    between atoms: _23  and  _25
REMARK   10  A    between atoms: _25  and  _26
REMARK   11  A    between atoms: _25  and  _28
REMARK   12  A    between atoms: _31  and  _33
REMARK   13  A    between atoms: _33  and  _34
REMARK   14  A    between atoms: _37  and  _38
REMARK   15  A    between atoms: _43  and  _45
REMARK   16  A    between atoms: _45  and  _46
REMARK   17  A    between atoms: _45  and  _48
REMARK   18  A    between atoms: _48  and  _49
REMARK   19  A    between atoms: _54  and  _56
REMARK   20  A    between atoms: _56  and  _57
REMARK   21  A    between atoms: _59  and  _61
REMARK   22  A    between atoms: _61  and  _62
REMARK   23  A    between atoms: _61  and  _64
REMARK   24  A    between atoms: _64  and  _65
REMARK   25  A    between atoms: _75  and  _77
REMARK   26  A    between atoms: _77  and  _78
REMARK   27  A    between atoms: _77  and  _80
REMARK   28  A    between atoms: _80  and  _81
REMARK   29  A    between atoms: _81  and  _82
REMARK   30  A    between atoms: _82  and  _83
REMARK   31  A    between atoms: _83  and  _84
REMARK   32  A    between atoms: _88  and  _90
REMARK   33  A    between atoms: _90  and  _91
REMARK   34  A    between atoms: _90  and  _93
REMARK   35  A    between atoms: _96  and  _98
REMARK   36  A    between atoms: _98  and  _99
REMARK   37  A    between atoms: _98  and  _101
REMARK   38  A    between atoms: _104  and  _106
REMARK   39  A    between atoms: _106  and  _107
REMARK   40  A    between atoms: _106  and  _109
REMARK   41  A    between atoms: _109  and  _110
REMARK   42  A    between atoms: _113  and  _115
REMARK   43  A    between atoms: _115  and  _116
REMARK   44  A    between atoms: _118  and  _120
REMARK   45  A    between atoms: _120  and  _121
REMARK   46  A    between atoms: _120  and  _123
REMARK   47  A    between atoms: _123  and  _124
REMARK   48  A    between atoms: _124  and  _125
REMARK   49  A    between atoms: _125  and  _126
REMARK   50  A    between atoms: _135  and  _137
REMARK   51  A    between atoms: _137  and  _138
REMARK   52  A    between atoms: _137  and  _140
REMARK   53  A    between atoms: _140  and  _141
REMARK   54  A    between atoms: _146  and  _148
REMARK   55  A    between atoms: _148  and  _149
REMARK   56  A    between atoms: _148  and  _151
REMARK   57  A    between atoms: _151  and  _152
REMARK   58  A    between atoms: _152  and  _153
REMARK   59  A    between atoms: _153  and  _154
REMARK   60  A    between atoms: _154  and  _155
REMARK   61  A    between atoms: _159  and  _161
REMARK   62  A    between atoms: _161  and  _162
REMARK   63  A    between atoms: _161  and  _164
REMARK   64  A    between atoms: _164  and  _165
REMARK   65  A    between atoms: _171  and  _173
REMARK   66  A    between atoms: _173  and  _174
REMARK   67  A    between atoms: _173  and  _176
REMARK   68  A    between atoms: _176  and  _177
REMARK   69  A    between atoms: _182  and  _184
REMARK   70  A    between atoms: _184  and  _185
REMARK   71  A    between atoms: _184  and  _187
REMARK   72  A    between atoms: _187  and  _188
REMARK   73  A    between atoms: _193  and  _195
REMARK   74  A    between atoms: _195  and  _196
REMARK   75  A    between atoms: _198  and  _200
REMARK   76  A    between atoms: _200  and  _201
REMARK   77  A    between atoms: _200  and  _203
REMARK   78  A    between atoms: _203  and  _204
REMARK   79  A    between atoms: _204  and  _205
REMARK   80  A    between atoms: _205  and  _206
REMARK   81  A    between atoms: _215  and  _217
REMARK   82  A    between atoms: _217  and  _218
REMARK   83  A    between atoms: _217  and  _220
REMARK   84  A    between atoms: _220  and  _221
REMARK   85  A    between atoms: _225  and  _226
REMARK   86  A    between atoms: _231  and  _233
REMARK   87  A    between atoms: _233  and  _234
REMARK   88  A    between atoms: _237  and  _239
REMARK   89  A    between atoms: _239  and  _240
REMARK   90  A    between atoms: _239  and  _242
REMARK   91  A    between atoms: _242  and  _243
REMARK   92  A    between atoms: _253  and  _255
REMARK   93  A    between atoms: _255  and  _256
REMARK   94  A    between atoms: _255  and  _258
REMARK   95  A    between atoms: _258  and  _259
REMARK   96  A    between atoms: _259  and  _260
REMARK   97  A    between atoms: _263  and  _265
REMARK   98  A    between atoms: _265  and  _266
REMARK   99  A    between atoms: _265  and  _268
REMARK  100  A    between atoms: _268  and  _269
REMARK  101  A    between atoms: _271  and  _273
REMARK  102  A    between atoms: _273  and  _274
REMARK  103  A    between atoms: _273  and  _276
REMARK  104  A    between atoms: _276  and  _277
REMARK  105  A    between atoms: _280  and  _282
REMARK  106  A    between atoms: _282  and  _283
REMARK  107  A    between atoms: _286  and  _288
REMARK  108  A    between atoms: _288  and  _289
REMARK  109  A    between atoms: _288  and  _291
REMARK  110  A    between atoms: _291  and  _292
REMARK  111  A    between atoms: _295  and  _297
REMARK  112  A    between atoms: _297  and  _298
REMARK  113  A    between atoms: _297  and  _300
REMARK  114  A    between atoms: _300  and  _301
REMARK  115  A    between atoms: _301  and  _302
REMARK  116  A    between atoms: _307  and  _309
REMARK  117  A    between atoms: _309  and  _310
REMARK  118  A    between atoms: _313  and  _315
REMARK  119  A    between atoms: _315  and  _316
REMARK  120  A    between atoms: _315  and  _318
REMARK  121  A    between atoms: _318  and  _319
REMARK  122  A    between atoms: _321  and  _323
REMARK  123  A    between atoms: _323  and  _324
REMARK  124  A    between atoms: _326  and  _328
REMARK  125  A    between atoms: _328  and  _329
REMARK  126  A    between atoms: _328  and  _331
REMARK  127  A    between atoms: _331  and  _332
REMARK  128  A    between atoms: _332  and  _333
REMARK  129  A    between atoms: _338  and  _340
REMARK  130  A    between atoms: _340  and  _341
REMARK  131  A    between atoms: _344  and  _345
REMARK  132  A    between atoms: _350  and  _352
REMARK  133  A    between atoms: _352  and  _353
REMARK  134  A    between atoms: _352  and  _355
REMARK  135  A    between atoms: _355  and  _356
REMARK  136  A    between atoms: _361  and  _362
REMARK  137  A    between atoms: _364  and  _366
REMARK  138  A    between atoms: _366  and  _367
REMARK  139  A    between atoms: _366  and  _369
REMARK  140  A    between atoms: _369  and  _370
REMARK  141  A    between atoms: _376  and  _378
REMARK  142  A    between atoms: _378  and  _379
REMARK  143  A    between atoms: _381  and  _383
REMARK  144  A    between atoms: _383  and  _384
REMARK  145  A    between atoms: _383  and  _386
REMARK  146  A    between atoms: _386  and  _387
REMARK  147  A    between atoms: _387  and  _388
REMARK  148  A    between atoms: _393  and  _395
REMARK  149  A    between atoms: _395  and  _396
REMARK  150  A    between atoms: _399  and  _401
REMARK  151  A    between atoms: _401  and  _402
REMARK  152  A    between atoms: _404  and  _406
REMARK  153  A    between atoms: _406  and  _407
REMARK  154  A    between atoms: _406  and  _409
REMARK  155  A    between atoms: _409  and  _410
REMARK  156  A    between atoms: _420  and  _422
REMARK  157  A    between atoms: _422  and  _423
REMARK  158  A    between atoms: _422  and  _425
REMARK  159  A    between atoms: _425  and  _426
REMARK  160  A    between atoms: _432  and  _434
REMARK  161  A    between atoms: _434  and  _435
REMARK  162  A    between atoms: _434  and  _437
REMARK  163  A    between atoms: _440  and  _442
REMARK  164  A    between atoms: _442  and  _443
REMARK  165  A    between atoms: _446  and  _448
REMARK  166  A    between atoms: _448  and  _449
REMARK  167  A    between atoms: _448  and  _451
REMARK  168  A    between atoms: _451  and  _452
REMARK  169  A    between atoms: _452  and  _453
REMARK  170  A    between atoms: _456  and  _458
REMARK  171  A    between atoms: _458  and  _459
REMARK  172  A    between atoms: _458  and  _461
REMARK  173  A    between atoms: _461  and  _462
REMARK  174  A    between atoms: _472  and  _474
REMARK  175  A    between atoms: _474  and  _475
REMARK  176  A    between atoms: _474  and  _477
REMARK  177  A    between atoms: _477  and  _478
REMARK  178  A    between atoms: _478  and  _479
REMARK  179  A    between atoms: _479  and  _480
REMARK  180  A    between atoms: _480  and  _481
REMARK  181  A    between atoms: _485  and  _487
REMARK  182  A    between atoms: _487  and  _488
REMARK  183  A    between atoms: _487  and  _490
REMARK  184  A    between atoms: _490  and  _491
REMARK  185  A    between atoms: _497  and  _499
REMARK  186  A    between atoms: _499  and  _500
REMARK  187  A    between atoms: _499  and  _502
REMARK  188  A    between atoms: _502  and  _503
REMARK  189  A    between atoms: _509  and  _511
REMARK  190  A    between atoms: _511  and  _512
REMARK  191  A    between atoms: _511  and  _514
REMARK  192  A    between atoms: _514  and  _515
REMARK  193  A    between atoms: _515  and  _516
REMARK  194  A    between atoms: _521  and  _523
REMARK  195  A    between atoms: _523  and  _524
REMARK  196  A    between atoms: _527  and  _529
REMARK  197  A    between atoms: _529  and  _530
REMARK  198  A    between atoms: _529  and  _532
REMARK  199  A    between atoms: _532  and  _533
REMARK  200  A    between atoms: _535  and  _537
REMARK  201  A    between atoms: _537  and  _538
REMARK  202  A    between atoms: _540  and  _542
REMARK  203  A    between atoms: _542  and  _543
REMARK  204  A    between atoms: _542  and  _545
REMARK  205  A    between atoms: _545  and  _546
REMARK  206  A    between atoms: _546  and  _547
REMARK  207  A    between atoms: _553  and  _554
REMARK  208  A    between atoms: _559  and  _561
REMARK  209  A    between atoms: _561  and  _562
REMARK  210  A    between atoms: _561  and  _564
REMARK  211  A    between atoms: _564  and  _565
REMARK  212  A    between atoms: _570  and  _571
REMARK  213  A    between atoms: _573  and  _575
REMARK  214  A    between atoms: _575  and  _576
REMARK  215  A    between atoms: _575  and  _578
REMARK  216  A    between atoms: _578  and  _579
REMARK  217  A    between atoms: _579  and  _580
REMARK  218  A    between atoms: _580  and  _581
REMARK  219  A    between atoms: _590  and  _592
REMARK  220  A    between atoms: _592  and  _593
REMARK  221  A    between atoms: _592  and  _595
REMARK  222  A    between atoms: _595  and  _596
REMARK  223  A    between atoms: _601  and  _602
REMARK  224  A    between atoms: _604  and  _606
REMARK  225  A    between atoms: _606  and  _607
REMARK  226  A    between atoms: _606  and  _609
REMARK  227  A    between atoms: _609  and  _610
REMARK  228  A    between atoms: _610  and  _611
REMARK  229  A    between atoms: _614  and  _616
REMARK  230  A    between atoms: _616  and  _617
REMARK  231  A    between atoms: _616  and  _619
REMARK  232  A    between atoms: _619  and  _620
REMARK  233  A    between atoms: _620  and  _621
REMARK  234  A    between atoms: _621  and  _622
REMARK                            x       y       z     vdW  Elec       q    Type
REMARK                         _______ _______ _______ _____ _____    ______ ____
ROOT
ATOM      1  O   HOH     1      -4.927   4.692   3.098  0.00  0.00    +0.000 OA
ENDROOT
TORSDOF 0
REMARK  Name = ../refined-set-2016/4f0c/4f0c_pocket.pdb
REMARK  234 active torsions:
REMARK  status: ('A' for Active; 'I' for Inactive)
REMARK    1  A    between atoms: _1  and  _3
REMARK    2  A    between atoms: _3  and  _4
REMARK    3  A    between atoms: _3  and  _6
REMARK    4  A    between atoms: _6  and  _7
REMARK    5  A    between atoms: _12  and  _14
REMARK    6  A    between atoms: _14  and  _15
REMARK    7  A    between atoms: _14  and  _17
REMARK    8  A    between atoms: _17  and  _18
REMARK    9  A    between atoms: _23  and  _25
REMARK   10  A    between atoms: _25  and  _26
REMARK   11  A    between atoms: _25  and  _28
REMARK   12  A    between atoms: _31  and  _33
REMARK   13  A    between atoms: _33  and  _34
REMARK   14  A    between atoms: _37  and  _38
REMARK   15  A    between atoms: _43  and  _45
REMARK   16  A    between atoms: _45  and  _46
REMARK   17  A    between atoms: _45  and  _48
REMARK   18  A    between atoms: _48  and  _49
REMARK   19  A    between atoms: _54  and  _56
REMARK   20  A    between atoms: _56  and  _57
REMARK   21  A    between atoms: _59  and  _61
REMARK   22  A    between atoms: _61  and  _62
REMARK   23  A    between atoms: _61  and  _64
REMARK   24  A    between atoms: _64  and  _65
REMARK   25  A    between atoms: _75  and  _77
REMARK   26  A    between atoms: _77  and  _78
REMARK   27  A    between atoms: _77  and  _80
REMARK   28  A    between atoms: _80  and  _81
REMARK   29  A    between atoms: _81  and  _82
REMARK   30  A    between atoms: _82  and  _83
REMARK   31  A    between atoms: _83  and  _84
REMARK   32  A    between atoms: _88  and  _90
REMARK   33  A    between atoms: _90  and  _91
REMARK   34  A    between atoms: _90  and  _93
REMARK   35  A    between atoms: _96  and  _98
REMARK   36  A    between atoms: _98  and  _99
REMARK   37  A    between atoms: _98  and  _101
REMARK   38  A    between atoms: _104  and  _106
REMARK   39  A    between atoms: _106  and  _107
REMARK   40  A    between atoms: _106  and  _109
REMARK   41  A    between atoms: _109  and  _110
REMARK   42  A    between atoms: _113  and  _115
REMARK   43  A    between atoms: _115  and  _116
REMARK   44  A    between atoms: _118  and  _120
REMARK   45  A    between atoms: _120  and  _121
REMARK   46  A    between atoms: _120  and  _123
REMARK   47  A    between atoms: _123  and  _124
REMARK   48  A    between atoms: _124  and  _125
REMARK   49  A    between atoms: _125  and  _126
REMARK   50  A    between atoms: _135  and  _137
REMARK   51  A    between atoms: _137  and  _138
REMARK   52  A    between atoms: _137  and  _140
REMARK   53  A    between atoms: _140  and  _141
REMARK   54  A    between atoms: _146  and  _148
REMARK   55  A    between atoms: _148  and  _149
REMARK   56  A    between atoms: _148  and  _151
REMARK   57  A    between atoms: _151  and  _152
REMARK   58  A    between atoms: _152  and  _153
REMARK   59  A    between atoms: _153  and  _154
REMARK   60  A    between atoms: _154  and  _155
REMARK   61  A    between atoms: _159  and  _161
REMARK   62  A    between atoms: _161  and  _162
REMARK   63  A    between atoms: _161  and  _164
REMARK   64  A    between atoms: _164  and  _165
REMARK   65  A    between atoms: _171  and  _173
REMARK   66  A    between atoms: _173  and  _174
REMARK   67  A    between atoms: _173  and  _176
REMARK   68  A    between atoms: _176  and  _177
REMARK   69  A    between atoms: _182  and  _184
REMARK   70  A    between atoms: _184  and  _185
REMARK   71  A    between atoms: _184  and  _187
REMARK   72  A    between atoms: _187  and  _188
REMARK   73  A    between atoms: _193  and  _195
REMARK   74  A    between atoms: _195  and  _196
REMARK   75  A    between atoms: _198  and  _200
REMARK   76  A    between atoms: _200  and  _201
REMARK   77  A    between atoms: _200  and  _203
REMARK   78  A    between atoms: _203  and  _204
REMARK   79  A    between atoms: _204  and  _205
REMARK   80  A    between atoms: _205  and  _206
REMARK   81  A    between atoms: _215  and  _217
REMARK   82  A    between atoms: _217  and  _218
REMARK   83  A    between atoms: _217  and  _220
REMARK   84  A    between atoms: _220  and  _221
REMARK   85  A    between atoms: _225  and  _226
REMARK   86  A    between atoms: _231  and  _233
REMARK   87  A    between atoms: _233  and  _234
REMARK   88  A    between atoms: _237  and  _239
REMARK   89  A    between atoms: _239  and  _240
REMARK   90  A    between atoms: _239  and  _242
REMARK   91  A    between atoms: _242  and  _243
REMARK   92  A    between atoms: _253  and  _255
REMARK   93  A    between atoms: _255  and  _256
REMARK   94  A    between atoms: _255  and  _258
REMARK   95  A    between atoms: _258  and  _259
REMARK   96  A    between atoms: _259  and  _260
REMARK   97  A    between atoms: _263  and  _265
REMARK   98  A    between atoms: _265  and  _266
REMARK   99  A    between atoms: _265  and  _268
REMARK  100  A    between atoms: _268  and  _269
REMARK  101  A    between atoms: _271  and  _273
REMARK  102  A    between atoms: _273  and  _274
REMARK  103  A    between atoms: _273  and  _276
REMARK  104  A    between atoms: _276  and  _277
REMARK  105  A    between atoms: _280  and  _282
REMARK  106  A    between atoms: _282  and  _283
REMARK  107  A    between atoms: _286  and  _288
REMARK  108  A    between atoms: _288  and  _289
REMARK  109  A    between atoms: _288  and  _291
REMARK  110  A    between atoms: _291  and  _292
REMARK  111  A    between atoms: _295  and  _297
REMARK  112  A    between atoms: _297  and  _298
REMARK  113  A    between atoms: _297  and  _300
REMARK  114  A    between atoms: _300  and  _301
REMARK  115  A    between atoms: _301  and  _302
REMARK  116  A    between atoms: _307  and  _309
REMARK  117  A    between atoms: _309  and  _310
REMARK  118  A    between atoms: _313  and  _315
REMARK  119  A    between atoms: _315  and  _316
REMARK  120  A    between atoms: _315  and  _318
REMARK  121  A    between atoms: _318  and  _319
REMARK  122  A    between atoms: _321  and  _323
REMARK  123  A    between atoms: _323  and  _324
REMARK  124  A    between atoms: _326  and  _328
REMARK  125  A    between atoms: _328  and  _329
REMARK  126  A    between atoms: _328  and  _331
REMARK  127  A    between atoms: _331  and  _332
REMARK  128  A    between atoms: _332  and  _333
REMARK  129  A    between atoms: _338  and  _340
REMARK  130  A    between atoms: _340  and  _341
REMARK  131  A    between atoms: _344  and  _345
REMARK  132  A    between atoms: _350  and  _352
REMARK  133  A    between atoms: _352  and  _353
REMARK  134  A    between atoms: _352  and  _355
REMARK  135  A    between atoms: _355  and  _356
REMARK  136  A    between atoms: _361  and  _362
REMARK  137  A    between atoms: _364  and  _366
REMARK  138  A    between atoms: _366  and  _367
REMARK  139  A    between atoms: _366  and  _369
REMARK  140  A    between atoms: _369  and  _370
REMARK  141  A    between atoms: _376  and  _378
REMARK  142  A    between atoms: _378  and  _379
REMARK  143  A    between atoms: _381  and  _383
REMARK  144  A    between atoms: _383  and  _384
REMARK  145  A    between atoms: _383  and  _386
REMARK  146  A    between atoms: _386  and  _387
REMARK  147  A    between atoms: _387  and  _388
REMARK  148  A    between atoms: _393  and  _395
REMARK  149  A    between atoms: _395  and  _396
REMARK  150  A    between atoms: _399  and  _401
REMARK  151  A    between atoms: _401  and  _402
REMARK  152  A    between atoms: _404  and  _406
REMARK  153  A    between atoms: _406  and  _407
REMARK  154  A    between atoms: _406  and  _409
REMARK  155  A    between atoms: _409  and  _410
REMARK  156  A    between atoms: _420  and  _422
REMARK  157  A    between atoms: _422  and  _423
REMARK  158  A    between atoms: _422  and  _425
REMARK  159  A    between atoms: _425  and  _426
REMARK  160  A    between atoms: _432  and  _434
REMARK  161  A    between atoms: _434  and  _435
REMARK  162  A    between atoms: _434  and  _437
REMARK  163  A    between atoms: _440  and  _442
REMARK  164  A    between atoms: _442  and  _443
REMARK  165  A    between atoms: _446  and  _448
REMARK  166  A    between atoms: _448  and  _449
REMARK  167  A    between atoms: _448  and  _451
REMARK  168  A    between atoms: _451  and  _452
REMARK  169  A    between atoms: _452  and  _453
REMARK  170  A    between atoms: _456  and  _458
REMARK  171  A    between atoms: _458  and  _459
REMARK  172  A    between atoms: _458  and  _461
REMARK  173  A    between atoms: _461  and  _462
REMARK  174  A    between atoms: _472  and  _474
REMARK  175  A    between atoms: _474  and  _475
REMARK  176  A    between atoms: _474  and  _477
REMARK  177  A    between atoms: _477  and  _478
REMARK  178  A    between atoms: _478  and  _479
REMARK  179  A    between atoms: _479  and  _480
REMARK  180  A    between atoms: _480  and  _481
REMARK  181  A    between atoms: _485  and  _487
REMARK  182  A    between atoms: _487  and  _488
REMARK  183  A    between atoms: _487  and  _490
REMARK  184  A    between atoms: _490  and  _491
REMARK  185  A    between atoms: _497  and  _499
REMARK  186  A    between atoms: _499  and  _500
REMARK  187  A    between atoms: _499  and  _502
REMARK  188  A    between atoms: _502  and  _503
REMARK  189  A    between atoms: _509  and  _511
REMARK  190  A    between atoms: _511  and  _512
REMARK  191  A    between atoms: _511  and  _514
REMARK  192  A    between atoms: _514  and  _515
REMARK  193  A    between atoms: _515  and  _516
REMARK  194  A    between atoms: _521  and  _523
REMARK  195  A    between atoms: _523  and  _524
REMARK  196  A    between atoms: _527  and  _529
REMARK  197  A    between atoms: _529  and  _530
REMARK  198  A    between atoms: _529  and  _532
REMARK  199  A    between atoms: _532  and  _533
REMARK  200  A    between atoms: _535  and  _537
REMARK  201  A    between atoms: _537  and  _538
REMARK  202  A    between atoms: _540  and  _542
REMARK  203  A    between atoms: _542  and  _543
REMARK  204  A    between atoms: _542  and  _545
REMARK  205  A    between atoms: _545  and  _546
REMARK  206  A    between atoms: _546  and  _547
REMARK  207  A    between atoms: _553  and  _554
REMARK  208  A    between atoms: _559  and  _561
REMARK  209  A    between atoms: _561  and  _562
REMARK  210  A    between atoms: _561  and  _564
REMARK  211  A    between atoms: _564  and  _565
REMARK  212  A    between atoms: _570  and  _571
REMARK  213  A    between atoms: _573  and  _575
REMARK  214  A    between atoms: _575  and  _576
REMARK  215  A    between atoms: _575  and  _578
REMARK  216  A    between atoms: _578  and  _579
REMARK  217  A    between atoms: _579  and  _580
REMARK  218  A    between atoms: _580  and  _581
REMARK  219  A    between atoms: _590  and  _592
REMARK  220  A    between atoms: _592  and  _593
REMARK  221  A    between atoms: _592  and  _595
REMARK  222  A    between atoms: _595  and  _596
REMARK  223  A    between atoms: _601  and  _602
REMARK  224  A    between atoms: _604  and  _606
REMARK  225  A    between atoms: _606  and  _607
REMARK  226  A    between atoms: _606  and  _609
REMARK  227  A    between atoms: _609  and  _610
REMARK  228  A    between atoms: _610  and  _611
REMARK  229  A    between atoms: _614  and  _616
REMARK  230  A    between atoms: _616  and  _617
REMARK  231  A    between atoms: _616  and  _619
REMARK  232  A    between atoms: _619  and  _620
REMARK  233  A    between atoms: _620  and  _621
REMARK  234  A    between atoms: _621  and  _622
REMARK                            x       y       z     vdW  Elec       q    Type
REMARK                         _______ _______ _______ _____ _____    ______ ____
ROOT
ATOM      1  O   HOH     1      -0.942  15.383   2.453  0.00  0.00    +0.000 OA
ENDROOT
TORSDOF 0
