REMARK  Name = ../refined-set-2016/2qry/2qry_pocket.pdb
REMARK  237 active torsions:
REMARK  status: ('A' for Active; 'I' for Inactive)
REMARK    1  A    between atoms: _1  and  _3
REMARK    2  A    between atoms: _3  and  _4
REMARK    3  A    between atoms: _3  and  _6
REMARK    4  A    between atoms: _6  and  _7
REMARK    5  A    between atoms: _10  and  _12
REMARK    6  A    between atoms: _12  and  _13
REMARK    7  A    between atoms: _12  and  _15
REMARK    8  A    between atoms: _15  and  _16
REMARK    9  A    between atoms: _21  and  _22
REMARK   10  A    between atoms: _24  and  _26
REMARK   11  A    between atoms: _26  and  _27
REMARK   12  A    between atoms: _26  and  _29
REMARK   13  A    between atoms: _29  and  _30
REMARK   14  A    between atoms: _33  and  _35
REMARK   15  A    between atoms: _35  and  _36
REMARK   16  A    between atoms: _35  and  _38
REMARK   17  A    between atoms: _38  and  _39
REMARK   18  A    between atoms: _41  and  _43
REMARK   19  A    between atoms: _43  and  _44
REMARK   20  A    between atoms: _43  and  _46
REMARK   21  A    between atoms: _46  and  _47
REMARK   22  A    between atoms: _53  and  _55
REMARK   23  A    between atoms: _55  and  _56
REMARK   24  A    between atoms: _59  and  _61
REMARK   25  A    between atoms: _61  and  _62
REMARK   26  A    between atoms: _61  and  _64
REMARK   27  A    between atoms: _64  and  _65
REMARK   28  A    between atoms: _75  and  _77
REMARK   29  A    between atoms: _77  and  _78
REMARK   30  A    between atoms: _81  and  _82
REMARK   31  A    between atoms: _87  and  _89
REMARK   32  A    between atoms: _89  and  _90
REMARK   33  A    between atoms: _89  and  _92
REMARK   34  A    between atoms: _92  and  _93
REMARK   35  A    between atoms: _93  and  _94
REMARK   36  A    between atoms: _97  and  _99
REMARK   37  A    between atoms: _99  and  _100
REMARK   38  A    between atoms: _99  and  _102
REMARK   39  A    between atoms: _102  and  _103
REMARK   40  A    between atoms: _106  and  _108
REMARK   41  A    between atoms: _108  and  _109
REMARK   42  A    between atoms: _111  and  _113
REMARK   43  A    between atoms: _113  and  _114
REMARK   44  A    between atoms: _113  and  _116
REMARK   45  A    between atoms: _119  and  _121
REMARK   46  A    between atoms: _121  and  _122
REMARK   47  A    between atoms: _121  and  _124
REMARK   48  A    between atoms: _124  and  _125
REMARK   49  A    between atoms: _127  and  _129
REMARK   50  A    between atoms: _129  and  _130
REMARK   51  A    between atoms: _129  and  _132
REMARK   52  A    between atoms: _132  and  _133
REMARK   53  A    between atoms: _136  and  _138
REMARK   54  A    between atoms: _138  and  _139
REMARK   55  A    between atoms: _141  and  _143
REMARK   56  A    between atoms: _143  and  _144
REMARK   57  A    between atoms: _143  and  _146
REMARK   58  A    between atoms: _146  and  _147
REMARK   59  A    between atoms: _150  and  _152
REMARK   60  A    between atoms: _152  and  _153
REMARK   61  A    between atoms: _152  and  _155
REMARK   62  A    between atoms: _155  and  _156
REMARK   63  A    between atoms: _159  and  _161
REMARK   64  A    between atoms: _161  and  _162
REMARK   65  A    between atoms: _161  and  _164
REMARK   66  A    between atoms: _164  and  _165
REMARK   67  A    between atoms: _171  and  _173
REMARK   68  A    between atoms: _173  and  _174
REMARK   69  A    between atoms: _173  and  _176
REMARK   70  A    between atoms: _176  and  _177
REMARK   71  A    between atoms: _180  and  _182
REMARK   72  A    between atoms: _182  and  _183
REMARK   73  A    between atoms: _182  and  _185
REMARK   74  A    between atoms: _185  and  _186
REMARK   75  A    between atoms: _191  and  _192
REMARK   76  A    between atoms: _194  and  _196
REMARK   77  A    between atoms: _196  and  _197
REMARK   78  A    between atoms: _199  and  _201
REMARK   79  A    between atoms: _201  and  _202
REMARK   80  A    between atoms: _201  and  _204
REMARK   81  A    between atoms: _204  and  _205
REMARK   82  A    between atoms: _211  and  _213
REMARK   83  A    between atoms: _213  and  _214
REMARK   84  A    between atoms: _213  and  _216
REMARK   85  A    between atoms: _219  and  _221
REMARK   86  A    between atoms: _221  and  _222
REMARK   87  A    between atoms: _221  and  _224
REMARK   88  A    between atoms: _224  and  _225
REMARK   89  A    between atoms: _225  and  _226
REMARK   90  A    between atoms: _231  and  _233
REMARK   91  A    between atoms: _233  and  _234
REMARK   92  A    between atoms: _233  and  _236
REMARK   93  A    between atoms: _236  and  _237
REMARK   94  A    between atoms: _240  and  _242
REMARK   95  A    between atoms: _242  and  _243
REMARK   96  A    between atoms: _242  and  _245
REMARK   97  A    between atoms: _245  and  _246
REMARK   98  A    between atoms: _246  and  _247
REMARK   99  A    between atoms: _247  and  _248
REMARK  100  A    between atoms: _257  and  _259
REMARK  101  A    between atoms: _259  and  _260
REMARK  102  A    between atoms: _259  and  _262
REMARK  103  A    between atoms: _262  and  _263
REMARK  104  A    between atoms: _266  and  _268
REMARK  105  A    between atoms: _268  and  _269
REMARK  106  A    between atoms: _268  and  _271
REMARK  107  A    between atoms: _271  and  _272
REMARK  108  A    between atoms: _274  and  _276
REMARK  109  A    between atoms: _276  and  _277
REMARK  110  A    between atoms: _276  and  _279
REMARK  111  A    between atoms: _279  and  _280
REMARK  112  A    between atoms: _284  and  _285
REMARK  113  A    between atoms: _290  and  _292
REMARK  114  A    between atoms: _292  and  _293
REMARK  115  A    between atoms: _295  and  _297
REMARK  116  A    between atoms: _297  and  _298
REMARK  117  A    between atoms: _297  and  _300
REMARK  118  A    between atoms: _300  and  _301
REMARK  119  A    between atoms: _304  and  _306
REMARK  120  A    between atoms: _306  and  _307
REMARK  121  A    between atoms: _309  and  _311
REMARK  122  A    between atoms: _311  and  _312
REMARK  123  A    between atoms: _311  and  _314
REMARK  124  A    between atoms: _314  and  _315
REMARK  125  A    between atoms: _318  and  _320
REMARK  126  A    between atoms: _320  and  _321
REMARK  127  A    between atoms: _320  and  _323
REMARK  128  A    between atoms: _323  and  _324
REMARK  129  A    between atoms: _324  and  _325
REMARK  130  A    between atoms: _325  and  _326
REMARK  131  A    between atoms: _326  and  _327
REMARK  132  A    between atoms: _331  and  _333
REMARK  133  A    between atoms: _333  and  _334
REMARK  134  A    between atoms: _336  and  _338
REMARK  135  A    between atoms: _338  and  _339
REMARK  136  A    between atoms: _338  and  _341
REMARK  137  A    between atoms: _341  and  _342
REMARK  138  A    between atoms: _352  and  _354
REMARK  139  A    between atoms: _354  and  _355
REMARK  140  A    between atoms: _354  and  _357
REMARK  141  A    between atoms: _357  and  _358
REMARK  142  A    between atoms: _360  and  _362
REMARK  143  A    between atoms: _362  and  _363
REMARK  144  A    between atoms: _362  and  _365
REMARK  145  A    between atoms: _365  and  _366
REMARK  146  A    between atoms: _366  and  _367
REMARK  147  A    between atoms: _370  and  _372
REMARK  148  A    between atoms: _372  and  _373
REMARK  149  A    between atoms: _376  and  _378
REMARK  150  A    between atoms: _378  and  _379
REMARK  151  A    between atoms: _378  and  _381
REMARK  152  A    between atoms: _381  and  _382
REMARK  153  A    between atoms: _387  and  _388
REMARK  154  A    between atoms: _390  and  _392
REMARK  155  A    between atoms: _392  and  _393
REMARK  156  A    between atoms: _392  and  _395
REMARK  157  A    between atoms: _395  and  _396
REMARK  158  A    between atoms: _399  and  _401
REMARK  159  A    between atoms: _401  and  _402
REMARK  160  A    between atoms: _401  and  _404
REMARK  161  A    between atoms: _404  and  _405
REMARK  162  A    between atoms: _408  and  _410
REMARK  163  A    between atoms: _410  and  _411
REMARK  164  A    between atoms: _410  and  _413
REMARK  165  A    between atoms: _413  and  _414
REMARK  166  A    between atoms: _416  and  _418
REMARK  167  A    between atoms: _418  and  _419
REMARK  168  A    between atoms: _418  and  _421
REMARK  169  A    between atoms: _421  and  _422
REMARK  170  A    between atoms: _427  and  _428
REMARK  171  A    between atoms: _430  and  _432
REMARK  172  A    between atoms: _432  and  _433
REMARK  173  A    between atoms: _432  and  _435
REMARK  174  A    between atoms: _435  and  _436
REMARK  175  A    between atoms: _439  and  _441
REMARK  176  A    between atoms: _441  and  _442
REMARK  177  A    between atoms: _441  and  _444
REMARK  178  A    between atoms: _444  and  _445
REMARK  179  A    between atoms: _448  and  _450
REMARK  180  A    between atoms: _450  and  _451
REMARK  181  A    between atoms: _450  and  _453
REMARK  182  A    between atoms: _453  and  _454
REMARK  183  A    between atoms: _457  and  _458
REMARK  184  A    between atoms: _463  and  _465
REMARK  185  A    between atoms: _465  and  _466
REMARK  186  A    between atoms: _469  and  _471
REMARK  187  A    between atoms: _471  and  _472
REMARK  188  A    between atoms: _471  and  _474
REMARK  189  A    between atoms: _474  and  _475
REMARK  190  A    between atoms: _480  and  _481
REMARK  191  A    between atoms: _483  and  _485
REMARK  192  A    between atoms: _485  and  _486
REMARK  193  A    between atoms: _485  and  _488
REMARK  194  A    between atoms: _488  and  _489
REMARK  195  A    between atoms: _494  and  _496
REMARK  196  A    between atoms: _496  and  _497
REMARK  197  A    between atoms: _496  and  _499
REMARK  198  A    between atoms: _499  and  _500
REMARK  199  A    between atoms: _503  and  _505
REMARK  200  A    between atoms: _505  and  _506
REMARK  201  A    between atoms: _505  and  _508
REMARK  202  A    between atoms: _508  and  _509
REMARK  203  A    between atoms: _509  and  _510
REMARK  204  A    between atoms: _515  and  _517
REMARK  205  A    between atoms: _517  and  _518
REMARK  206  A    between atoms: _517  and  _520
REMARK  207  A    between atoms: _520  and  _521
REMARK  208  A    between atoms: _521  and  _522
REMARK  209  A    between atoms: _525  and  _527
REMARK  210  A    between atoms: _527  and  _528
REMARK  211  A    between atoms: _527  and  _530
REMARK  212  A    between atoms: _530  and  _531
REMARK  213  A    between atoms: _535  and  _536
REMARK  214  A    between atoms: _541  and  _543
REMARK  215  A    between atoms: _543  and  _544
REMARK  216  A    between atoms: _543  and  _546
REMARK  217  A    between atoms: _546  and  _547
REMARK  218  A    between atoms: _550  and  _552
REMARK  219  A    between atoms: _552  and  _553
REMARK  220  A    between atoms: _555  and  _557
REMARK  221  A    between atoms: _557  and  _558
REMARK  222  A    between atoms: _557  and  _560
REMARK  223  A    between atoms: _560  and  _561
REMARK  224  A    between atoms: _566  and  _568
REMARK  225  A    between atoms: _568  and  _569
REMARK  226  A    between atoms: _568  and  _571
REMARK  227  A    between atoms: _571  and  _572
REMARK  228  A    between atoms: _582  and  _584
REMARK  229  A    between atoms: _584  and  _585
REMARK  230  A    between atoms: _584  and  _587
REMARK  231  A    between atoms: _587  and  _588
REMARK  232  A    between atoms: _588  and  _589
REMARK  233  A    between atoms: _591  and  _593
REMARK  234  A    between atoms: _593  and  _594
REMARK  235  A    between atoms: _593  and  _596
REMARK  236  A    between atoms: _596  and  _597
REMARK  237  A    between atoms: _602  and  _603
REMARK                            x       y       z     vdW  Elec       q    Type
REMARK                         _______ _______ _______ _____ _____    ______ ____
ROOT
ATOM      1  CA  ASP A   3      10.248  55.767 103.812  0.00  0.00    +0.160 C 
ENDROOT
BRANCH   1   3
ATOM      2  C   TYR A   2       8.609  57.084 105.042  0.00  0.00    +0.241 C 
ATOM      3  N   ASP A   3       9.882  56.720 104.860  0.00  0.00    -0.297 N 
ATOM      4  H   ASP A   3      10.622  57.120 105.471  0.00  0.00    +0.150 HD
ATOM      5  O   TYR A   2       7.675  56.594 104.395  0.00  0.00    -0.273 OA
BRANCH   2   6
ATOM      6  CA  TYR A   2       8.330  58.147 106.105  0.00  0.00    +0.153 C 
BRANCH   6   8
ATOM      7  C   THR A   1       6.737  59.736 105.175  0.00  0.00    +0.241 C 
ATOM      8  N   TYR A   2       6.984  58.693 105.968  0.00  0.00    -0.297 N 
ATOM      9  H   TYR A   2       6.202  58.260 106.499  0.00  0.00    +0.150 HD
ATOM     10  O   THR A   1       7.618  60.305 104.534  0.00  0.00    -0.274 OA
BRANCH   7  11
ATOM     11  CA  THR A   1       5.286  60.230 105.099  0.00  0.00    +0.172 C 
BRANCH  11  12
ATOM     12  CB  THR A   1       4.365  59.098 104.564  0.00  0.00    +0.135 C 
ATOM     13  CG2 THR A   1       4.886  58.557 103.228  0.00  0.00    +0.034 C 
BRANCH  12  14
ATOM     14  OG1 THR A   1       4.310  58.037 105.525  0.00  0.00    -0.383 OA
ATOM     15  HG1 THR A   1       3.947  58.384 106.378  0.00  0.00    +0.210 HD
ENDBRANCH  12  14
ENDBRANCH  11  12
BRANCH  11  16
ATOM     16  N   THR A   1       5.199  61.418 104.257  0.00  0.00    -0.236 NA
ATOM     17  H   THR A   1       5.957  61.619 103.574  0.00  0.00    +0.142 HD
ENDBRANCH  11  16
ENDBRANCH   7  11
ENDBRANCH   6   8
BRANCH   6  18
ATOM     18  CB  TYR A   2       8.539  57.603 107.526  0.00  0.00    +0.055 C 
BRANCH  18  19
ATOM     19  CG  TYR A   2       7.465  56.667 108.041  0.00  0.00    -0.020 A 
ATOM     20  CD2 TYR A   2       6.476  57.129 108.915  0.00  0.00    -0.001 A 
ATOM     21  CE2 TYR A   2       5.521  56.262 109.459  0.00  0.00    +0.036 A 
ATOM     22  CZ  TYR A   2       5.553  54.915 109.127  0.00  0.00    +0.134 A 
ATOM     23  CE1 TYR A   2       6.520  54.428 108.252  0.00  0.00    +0.036 A 
ATOM     24  CD1 TYR A   2       7.471  55.311 107.710  0.00  0.00    -0.001 A 
BRANCH  22  25
ATOM     25  OH  TYR A   2       4.645  54.052 109.701  0.00  0.00    -0.506 OA
ATOM     26  HH  TYR A   2       4.757  54.064 110.685  0.00  0.00    +0.292 HD
ENDBRANCH  22  25
ENDBRANCH  18  19
ENDBRANCH   6  18
ENDBRANCH   2   6
ENDBRANCH   1   3
BRANCH   1  27
ATOM     27  C   ASP A   3       9.710  54.350 103.859  0.00  0.00    +0.241 C 
ATOM     28  N   SER A   4       9.625  53.745 105.038  0.00  0.00    -0.295 N 
ATOM     29  H   SER A   4       9.914  54.241 105.905  0.00  0.00    +0.150 HD
ATOM     30  O   ASP A   3       9.372  53.798 102.812  0.00  0.00    -0.273 OA
BRANCH  28  31
ATOM     31  CA  SER A   4       9.123  52.381 105.105  0.00  0.00    +0.178 C 
BRANCH  31  32
ATOM     32  C   SER A   4       7.629  52.303 104.763  0.00  0.00    +0.243 C 
ATOM     33  N   PHE A   5       6.922  53.430 104.822  0.00  0.00    -0.298 N 
ATOM     34  H   PHE A   5       7.383  54.320 105.100  0.00  0.00    +0.150 HD
ATOM     35  O   SER A   4       7.125  51.235 104.430  0.00  0.00    -0.273 OA
BRANCH  33  36
ATOM     36  CA  PHE A   5       5.498  53.414 104.496  0.00  0.00    +0.141 C 
BRANCH  36  37
ATOM     37  C   PHE A   5       5.307  53.432 102.981  0.00  0.00    +0.227 C 
ATOM     38  O   PHE A   5       4.581  52.602 102.433  0.00  0.00    -0.286 OA
ENDBRANCH  36  37
BRANCH  36  39
ATOM     39  CB  PHE A   5       4.772  54.615 105.108  0.00  0.00    +0.054 C 
BRANCH  39  40
ATOM     40  CG  PHE A   5       3.272  54.536 104.997  0.00  0.00    -0.020 A 
ATOM     41  CD2 PHE A   5       2.521  53.874 105.964  0.00  0.00    -0.004 A 
ATOM     42  CE2 PHE A   5       1.133  53.781 105.855  0.00  0.00    -0.000 A 
ATOM     43  CZ  PHE A   5       0.479  54.354 104.769  0.00  0.00    -0.000 A 
ATOM     44  CE1 PHE A   5       1.219  55.015 103.798  0.00  0.00    -0.000 A 
ATOM     45  CD1 PHE A   5       2.610  55.103 103.916  0.00  0.00    -0.004 A 
ENDBRANCH  39  40
ENDBRANCH  36  39
ENDBRANCH  33  36
ENDBRANCH  31  32
BRANCH  31  46
ATOM     46  CB  SER A   4       9.390  51.775 106.485  0.00  0.00    +0.166 C 
BRANCH  46  47
ATOM     47  OG  SER A   4       8.690  52.468 107.493  0.00  0.00    -0.380 OA
ATOM     48  H   SER A   4       7.718  52.421 107.310  0.00  0.00    +0.211 HD
ENDBRANCH  46  47
ENDBRANCH  31  46
ENDBRANCH  28  31
ENDBRANCH   1  27
BRANCH   1  49
ATOM     49  CB  ASP A   3      11.774  55.709 103.606  0.00  0.00    +0.143 C 
BRANCH  49  50
ATOM     50  CG  ASP A   3      12.540  55.415 104.878  0.00  0.00    +0.367 C 
ATOM     51  OD2 ASP A   3      12.077  54.594 105.698  0.00  0.00    -0.246 OA
ATOM     52  OD1 ASP A   3      13.630  56.002 105.048  0.00  0.00    -0.246 OA
ENDBRANCH  49  50
ENDBRANCH   1  49
TORSDOF 21
REMARK  Name = ../refined-set-2016/2qry/2qry_pocket.pdb
REMARK  237 active torsions:
REMARK  status: ('A' for Active; 'I' for Inactive)
REMARK    1  A    between atoms: _1  and  _3
REMARK    2  A    between atoms: _3  and  _4
REMARK    3  A    between atoms: _3  and  _6
REMARK    4  A    between atoms: _6  and  _7
REMARK    5  A    between atoms: _10  and  _12
REMARK    6  A    between atoms: _12  and  _13
REMARK    7  A    between atoms: _12  and  _15
REMARK    8  A    between atoms: _15  and  _16
REMARK    9  A    between atoms: _21  and  _22
REMARK   10  A    between atoms: _24  and  _26
REMARK   11  A    between atoms: _26  and  _27
REMARK   12  A    between atoms: _26  and  _29
REMARK   13  A    between atoms: _29  and  _30
REMARK   14  A    between atoms: _33  and  _35
REMARK   15  A    between atoms: _35  and  _36
REMARK   16  A    between atoms: _35  and  _38
REMARK   17  A    between atoms: _38  and  _39
REMARK   18  A    between atoms: _41  and  _43
REMARK   19  A    between atoms: _43  and  _44
REMARK   20  A    between atoms: _43  and  _46
REMARK   21  A    between atoms: _46  and  _47
REMARK   22  A    between atoms: _53  and  _55
REMARK   23  A    between atoms: _55  and  _56
REMARK   24  A    between atoms: _59  and  _61
REMARK   25  A    between atoms: _61  and  _62
REMARK   26  A    between atoms: _61  and  _64
REMARK   27  A    between atoms: _64  and  _65
REMARK   28  A    between atoms: _75  and  _77
REMARK   29  A    between atoms: _77  and  _78
REMARK   30  A    between atoms: _81  and  _82
REMARK   31  A    between atoms: _87  and  _89
REMARK   32  A    between atoms: _89  and  _90
REMARK   33  A    between atoms: _89  and  _92
REMARK   34  A    between atoms: _92  and  _93
REMARK   35  A    between atoms: _93  and  _94
REMARK   36  A    between atoms: _97  and  _99
REMARK   37  A    between atoms: _99  and  _100
REMARK   38  A    between atoms: _99  and  _102
REMARK   39  A    between atoms: _102  and  _103
REMARK   40  A    between atoms: _106  and  _108
REMARK   41  A    between atoms: _108  and  _109
REMARK   42  A    between atoms: _111  and  _113
REMARK   43  A    between atoms: _113  and  _114
REMARK   44  A    between atoms: _113  and  _116
REMARK   45  A    between atoms: _119  and  _121
REMARK   46  A    between atoms: _121  and  _122
REMARK   47  A    between atoms: _121  and  _124
REMARK   48  A    between atoms: _124  and  _125
REMARK   49  A    between atoms: _127  and  _129
REMARK   50  A    between atoms: _129  and  _130
REMARK   51  A    between atoms: _129  and  _132
REMARK   52  A    between atoms: _132  and  _133
REMARK   53  A    between atoms: _136  and  _138
REMARK   54  A    between atoms: _138  and  _139
REMARK   55  A    between atoms: _141  and  _143
REMARK   56  A    between atoms: _143  and  _144
REMARK   57  A    between atoms: _143  and  _146
REMARK   58  A    between atoms: _146  and  _147
REMARK   59  A    between atoms: _150  and  _152
REMARK   60  A    between atoms: _152  and  _153
REMARK   61  A    between atoms: _152  and  _155
REMARK   62  A    between atoms: _155  and  _156
REMARK   63  A    between atoms: _159  and  _161
REMARK   64  A    between atoms: _161  and  _162
REMARK   65  A    between atoms: _161  and  _164
REMARK   66  A    between atoms: _164  and  _165
REMARK   67  A    between atoms: _171  and  _173
REMARK   68  A    between atoms: _173  and  _174
REMARK   69  A    between atoms: _173  and  _176
REMARK   70  A    between atoms: _176  and  _177
REMARK   71  A    between atoms: _180  and  _182
REMARK   72  A    between atoms: _182  and  _183
REMARK   73  A    between atoms: _182  and  _185
REMARK   74  A    between atoms: _185  and  _186
REMARK   75  A    between atoms: _191  and  _192
REMARK   76  A    between atoms: _194  and  _196
REMARK   77  A    between atoms: _196  and  _197
REMARK   78  A    between atoms: _199  and  _201
REMARK   79  A    between atoms: _201  and  _202
REMARK   80  A    between atoms: _201  and  _204
REMARK   81  A    between atoms: _204  and  _205
REMARK   82  A    between atoms: _211  and  _213
REMARK   83  A    between atoms: _213  and  _214
REMARK   84  A    between atoms: _213  and  _216
REMARK   85  A    between atoms: _219  and  _221
REMARK   86  A    between atoms: _221  and  _222
REMARK   87  A    between atoms: _221  and  _224
REMARK   88  A    between atoms: _224  and  _225
REMARK   89  A    between atoms: _225  and  _226
REMARK   90  A    between atoms: _231  and  _233
REMARK   91  A    between atoms: _233  and  _234
REMARK   92  A    between atoms: _233  and  _236
REMARK   93  A    between atoms: _236  and  _237
REMARK   94  A    between atoms: _240  and  _242
REMARK   95  A    between atoms: _242  and  _243
REMARK   96  A    between atoms: _242  and  _245
REMARK   97  A    between atoms: _245  and  _246
REMARK   98  A    between atoms: _246  and  _247
REMARK   99  A    between atoms: _247  and  _248
REMARK  100  A    between atoms: _257  and  _259
REMARK  101  A    between atoms: _259  and  _260
REMARK  102  A    between atoms: _259  and  _262
REMARK  103  A    between atoms: _262  and  _263
REMARK  104  A    between atoms: _266  and  _268
REMARK  105  A    between atoms: _268  and  _269
REMARK  106  A    between atoms: _268  and  _271
REMARK  107  A    between atoms: _271  and  _272
REMARK  108  A    between atoms: _274  and  _276
REMARK  109  A    between atoms: _276  and  _277
REMARK  110  A    between atoms: _276  and  _279
REMARK  111  A    between atoms: _279  and  _280
REMARK  112  A    between atoms: _284  and  _285
REMARK  113  A    between atoms: _290  and  _292
REMARK  114  A    between atoms: _292  and  _293
REMARK  115  A    between atoms: _295  and  _297
REMARK  116  A    between atoms: _297  and  _298
REMARK  117  A    between atoms: _297  and  _300
REMARK  118  A    between atoms: _300  and  _301
REMARK  119  A    between atoms: _304  and  _306
REMARK  120  A    between atoms: _306  and  _307
REMARK  121  A    between atoms: _309  and  _311
REMARK  122  A    between atoms: _311  and  _312
REMARK  123  A    between atoms: _311  and  _314
REMARK  124  A    between atoms: _314  and  _315
REMARK  125  A    between atoms: _318  and  _320
REMARK  126  A    between atoms: _320  and  _321
REMARK  127  A    between atoms: _320  and  _323
REMARK  128  A    between atoms: _323  and  _324
REMARK  129  A    between atoms: _324  and  _325
REMARK  130  A    between atoms: _325  and  _326
REMARK  131  A    between atoms: _326  and  _327
REMARK  132  A    between atoms: _331  and  _333
REMARK  133  A    between atoms: _333  and  _334
REMARK  134  A    between atoms: _336  and  _338
REMARK  135  A    between atoms: _338  and  _339
REMARK  136  A    between atoms: _338  and  _341
REMARK  137  A    between atoms: _341  and  _342
REMARK  138  A    between atoms: _352  and  _354
REMARK  139  A    between atoms: _354  and  _355
REMARK  140  A    between atoms: _354  and  _357
REMARK  141  A    between atoms: _357  and  _358
REMARK  142  A    between atoms: _360  and  _362
REMARK  143  A    between atoms: _362  and  _363
REMARK  144  A    between atoms: _362  and  _365
REMARK  145  A    between atoms: _365  and  _366
REMARK  146  A    between atoms: _366  and  _367
REMARK  147  A    between atoms: _370  and  _372
REMARK  148  A    between atoms: _372  and  _373
REMARK  149  A    between atoms: _376  and  _378
REMARK  150  A    between atoms: _378  and  _379
REMARK  151  A    between atoms: _378  and  _381
REMARK  152  A    between atoms: _381  and  _382
REMARK  153  A    between atoms: _387  and  _388
REMARK  154  A    between atoms: _390  and  _392
REMARK  155  A    between atoms: _392  and  _393
REMARK  156  A    between atoms: _392  and  _395
REMARK  157  A    between atoms: _395  and  _396
REMARK  158  A    between atoms: _399  and  _401
REMARK  159  A    between atoms: _401  and  _402
REMARK  160  A    between atoms: _401  and  _404
REMARK  161  A    between atoms: _404  and  _405
REMARK  162  A    between atoms: _408  and  _410
REMARK  163  A    between atoms: _410  and  _411
REMARK  164  A    between atoms: _410  and  _413
REMARK  165  A    between atoms: _413  and  _414
REMARK  166  A    between atoms: _416  and  _418
REMARK  167  A    between atoms: _418  and  _419
REMARK  168  A    between atoms: _418  and  _421
REMARK  169  A    between atoms: _421  and  _422
REMARK  170  A    between atoms: _427  and  _428
REMARK  171  A    between atoms: _430  and  _432
REMARK  172  A    between atoms: _432  and  _433
REMARK  173  A    between atoms: _432  and  _435
REMARK  174  A    between atoms: _435  and  _436
REMARK  175  A    between atoms: _439  and  _441
REMARK  176  A    between atoms: _441  and  _442
REMARK  177  A    between atoms: _441  and  _444
REMARK  178  A    between atoms: _444  and  _445
REMARK  179  A    between atoms: _448  and  _450
REMARK  180  A    between atoms: _450  and  _451
REMARK  181  A    between atoms: _450  and  _453
REMARK  182  A    between atoms: _453  and  _454
REMARK  183  A    between atoms: _457  and  _458
REMARK  184  A    between atoms: _463  and  _465
REMARK  185  A    between atoms: _465  and  _466
REMARK  186  A    between atoms: _469  and  _471
REMARK  187  A    between atoms: _471  and  _472
REMARK  188  A    between atoms: _471  and  _474
REMARK  189  A    between atoms: _474  and  _475
REMARK  190  A    between atoms: _480  and  _481
REMARK  191  A    between atoms: _483  and  _485
REMARK  192  A    between atoms: _485  and  _486
REMARK  193  A    between atoms: _485  and  _488
REMARK  194  A    between atoms: _488  and  _489
REMARK  195  A    between atoms: _494  and  _496
REMARK  196  A    between atoms: _496  and  _497
REMARK  197  A    between atoms: _496  and  _499
REMARK  198  A    between atoms: _499  and  _500
REMARK  199  A    between atoms: _503  and  _505
REMARK  200  A    between atoms: _505  and  _506
REMARK  201  A    between atoms: _505  and  _508
REMARK  202  A    between atoms: _508  and  _509
REMARK  203  A    between atoms: _509  and  _510
REMARK  204  A    between atoms: _515  and  _517
REMARK  205  A    between atoms: _517  and  _518
REMARK  206  A    between atoms: _517  and  _520
REMARK  207  A    between atoms: _520  and  _521
REMARK  208  A    between atoms: _521  and  _522
REMARK  209  A    between atoms: _525  and  _527
REMARK  210  A    between atoms: _527  and  _528
REMARK  211  A    between atoms: _527  and  _530
REMARK  212  A    between atoms: _530  and  _531
REMARK  213  A    between atoms: _535  and  _536
REMARK  214  A    between atoms: _541  and  _543
REMARK  215  A    between atoms: _543  and  _544
REMARK  216  A    between atoms: _543  and  _546
REMARK  217  A    between atoms: _546  and  _547
REMARK  218  A    between atoms: _550  and  _552
REMARK  219  A    between atoms: _552  and  _553
REMARK  220  A    between atoms: _555  and  _557
REMARK  221  A    between atoms: _557  and  _558
REMARK  222  A    between atoms: _557  and  _560
REMARK  223  A    between atoms: _560  and  _561
REMARK  224  A    between atoms: _566  and  _568
REMARK  225  A    between atoms: _568  and  _569
REMARK  226  A    between atoms: _568  and  _571
REMARK  227  A    between atoms: _571  and  _572
REMARK  228  A    between atoms: _582  and  _584
REMARK  229  A    between atoms: _584  and  _585
REMARK  230  A    between atoms: _584  and  _587
REMARK  231  A    between atoms: _587  and  _588
REMARK  232  A    between atoms: _588  and  _589
REMARK  233  A    between atoms: _591  and  _593
REMARK  234  A    between atoms: _593  and  _594
REMARK  235  A    between atoms: _593  and  _596
REMARK  236  A    between atoms: _596  and  _597
REMARK  237  A    between atoms: _602  and  _603
REMARK                            x       y       z     vdW  Elec       q    Type
REMARK                         _______ _______ _______ _____ _____    ______ ____
ROOT
ATOM      1  CA  ALA A   1       8.388  51.738 100.151  0.00  0.00    +0.133 C 
ATOM      2  CB  ALA A   1       9.141  50.941 101.210  0.00  0.00    +0.027 C 
ENDROOT
BRANCH   1   3
ATOM      3  N   ALA A   1       7.520  52.721 100.792  0.00  0.00    -0.239 NA
ATOM      4  H   ALA A   1       7.537  52.817 101.827  0.00  0.00    +0.142 HD
ENDBRANCH   1   3
BRANCH   1   5
ATOM      5  C   ALA A   1       7.608  50.790  99.253  0.00  0.00    +0.224 C 
ATOM      6  O   ALA A   1       6.439  50.500  99.512  0.00  0.00    -0.287 OA
ENDBRANCH   1   5
TORSDOF 2
REMARK  Name = ../refined-set-2016/2qry/2qry_pocket.pdb
REMARK  237 active torsions:
REMARK  status: ('A' for Active; 'I' for Inactive)
REMARK    1  A    between atoms: _1  and  _3
REMARK    2  A    between atoms: _3  and  _4
REMARK    3  A    between atoms: _3  and  _6
REMARK    4  A    between atoms: _6  and  _7
REMARK    5  A    between atoms: _10  and  _12
REMARK    6  A    between atoms: _12  and  _13
REMARK    7  A    between atoms: _12  and  _15
REMARK    8  A    between atoms: _15  and  _16
REMARK    9  A    between atoms: _21  and  _22
REMARK   10  A    between atoms: _24  and  _26
REMARK   11  A    between atoms: _26  and  _27
REMARK   12  A    between atoms: _26  and  _29
REMARK   13  A    between atoms: _29  and  _30
REMARK   14  A    between atoms: _33  and  _35
REMARK   15  A    between atoms: _35  and  _36
REMARK   16  A    between atoms: _35  and  _38
REMARK   17  A    between atoms: _38  and  _39
REMARK   18  A    between atoms: _41  and  _43
REMARK   19  A    between atoms: _43  and  _44
REMARK   20  A    between atoms: _43  and  _46
REMARK   21  A    between atoms: _46  and  _47
REMARK   22  A    between atoms: _53  and  _55
REMARK   23  A    between atoms: _55  and  _56
REMARK   24  A    between atoms: _59  and  _61
REMARK   25  A    between atoms: _61  and  _62
REMARK   26  A    between atoms: _61  and  _64
REMARK   27  A    between atoms: _64  and  _65
REMARK   28  A    between atoms: _75  and  _77
REMARK   29  A    between atoms: _77  and  _78
REMARK   30  A    between atoms: _81  and  _82
REMARK   31  A    between atoms: _87  and  _89
REMARK   32  A    between atoms: _89  and  _90
REMARK   33  A    between atoms: _89  and  _92
REMARK   34  A    between atoms: _92  and  _93
REMARK   35  A    between atoms: _93  and  _94
REMARK   36  A    between atoms: _97  and  _99
REMARK   37  A    between atoms: _99  and  _100
REMARK   38  A    between atoms: _99  and  _102
REMARK   39  A    between atoms: _102  and  _103
REMARK   40  A    between atoms: _106  and  _108
REMARK   41  A    between atoms: _108  and  _109
REMARK   42  A    between atoms: _111  and  _113
REMARK   43  A    between atoms: _113  and  _114
REMARK   44  A    between atoms: _113  and  _116
REMARK   45  A    between atoms: _119  and  _121
REMARK   46  A    between atoms: _121  and  _122
REMARK   47  A    between atoms: _121  and  _124
REMARK   48  A    between atoms: _124  and  _125
REMARK   49  A    between atoms: _127  and  _129
REMARK   50  A    between atoms: _129  and  _130
REMARK   51  A    between atoms: _129  and  _132
REMARK   52  A    between atoms: _132  and  _133
REMARK   53  A    between atoms: _136  and  _138
REMARK   54  A    between atoms: _138  and  _139
REMARK   55  A    between atoms: _141  and  _143
REMARK   56  A    between atoms: _143  and  _144
REMARK   57  A    between atoms: _143  and  _146
REMARK   58  A    between atoms: _146  and  _147
REMARK   59  A    between atoms: _150  and  _152
REMARK   60  A    between atoms: _152  and  _153
REMARK   61  A    between atoms: _152  and  _155
REMARK   62  A    between atoms: _155  and  _156
REMARK   63  A    between atoms: _159  and  _161
REMARK   64  A    between atoms: _161  and  _162
REMARK   65  A    between atoms: _161  and  _164
REMARK   66  A    between atoms: _164  and  _165
REMARK   67  A    between atoms: _171  and  _173
REMARK   68  A    between atoms: _173  and  _174
REMARK   69  A    between atoms: _173  and  _176
REMARK   70  A    between atoms: _176  and  _177
REMARK   71  A    between atoms: _180  and  _182
REMARK   72  A    between atoms: _182  and  _183
REMARK   73  A    between atoms: _182  and  _185
REMARK   74  A    between atoms: _185  and  _186
REMARK   75  A    between atoms: _191  and  _192
REMARK   76  A    between atoms: _194  and  _196
REMARK   77  A    between atoms: _196  and  _197
REMARK   78  A    between atoms: _199  and  _201
REMARK   79  A    between atoms: _201  and  _202
REMARK   80  A    between atoms: _201  and  _204
REMARK   81  A    between atoms: _204  and  _205
REMARK   82  A    between atoms: _211  and  _213
REMARK   83  A    between atoms: _213  and  _214
REMARK   84  A    between atoms: _213  and  _216
REMARK   85  A    between atoms: _219  and  _221
REMARK   86  A    between atoms: _221  and  _222
REMARK   87  A    between atoms: _221  and  _224
REMARK   88  A    between atoms: _224  and  _225
REMARK   89  A    between atoms: _225  and  _226
REMARK   90  A    between atoms: _231  and  _233
REMARK   91  A    between atoms: _233  and  _234
REMARK   92  A    between atoms: _233  and  _236
REMARK   93  A    between atoms: _236  and  _237
REMARK   94  A    between atoms: _240  and  _242
REMARK   95  A    between atoms: _242  and  _243
REMARK   96  A    between atoms: _242  and  _245
REMARK   97  A    between atoms: _245  and  _246
REMARK   98  A    between atoms: _246  and  _247
REMARK   99  A    between atoms: _247  and  _248
REMARK  100  A    between atoms: _257  and  _259
REMARK  101  A    between atoms: _259  and  _260
REMARK  102  A    between atoms: _259  and  _262
REMARK  103  A    between atoms: _262  and  _263
REMARK  104  A    between atoms: _266  and  _268
REMARK  105  A    between atoms: _268  and  _269
REMARK  106  A    between atoms: _268  and  _271
REMARK  107  A    between atoms: _271  and  _272
REMARK  108  A    between atoms: _274  and  _276
REMARK  109  A    between atoms: _276  and  _277
REMARK  110  A    between atoms: _276  and  _279
REMARK  111  A    between atoms: _279  and  _280
REMARK  112  A    between atoms: _284  and  _285
REMARK  113  A    between atoms: _290  and  _292
REMARK  114  A    between atoms: _292  and  _293
REMARK  115  A    between atoms: _295  and  _297
REMARK  116  A    between atoms: _297  and  _298
REMARK  117  A    between atoms: _297  and  _300
REMARK  118  A    between atoms: _300  and  _301
REMARK  119  A    between atoms: _304  and  _306
REMARK  120  A    between atoms: _306  and  _307
REMARK  121  A    between atoms: _309  and  _311
REMARK  122  A    between atoms: _311  and  _312
REMARK  123  A    between atoms: _311  and  _314
REMARK  124  A    between atoms: _314  and  _315
REMARK  125  A    between atoms: _318  and  _320
REMARK  126  A    between atoms: _320  and  _321
REMARK  127  A    between atoms: _320  and  _323
REMARK  128  A    between atoms: _323  and  _324
REMARK  129  A    between atoms: _324  and  _325
REMARK  130  A    between atoms: _325  and  _326
REMARK  131  A    between atoms: _326  and  _327
REMARK  132  A    between atoms: _331  and  _333
REMARK  133  A    between atoms: _333  and  _334
REMARK  134  A    between atoms: _336  and  _338
REMARK  135  A    between atoms: _338  and  _339
REMARK  136  A    between atoms: _338  and  _341
REMARK  137  A    between atoms: _341  and  _342
REMARK  138  A    between atoms: _352  and  _354
REMARK  139  A    between atoms: _354  and  _355
REMARK  140  A    between atoms: _354  and  _357
REMARK  141  A    between atoms: _357  and  _358
REMARK  142  A    between atoms: _360  and  _362
REMARK  143  A    between atoms: _362  and  _363
REMARK  144  A    between atoms: _362  and  _365
REMARK  145  A    between atoms: _365  and  _366
REMARK  146  A    between atoms: _366  and  _367
REMARK  147  A    between atoms: _370  and  _372
REMARK  148  A    between atoms: _372  and  _373
REMARK  149  A    between atoms: _376  and  _378
REMARK  150  A    between atoms: _378  and  _379
REMARK  151  A    between atoms: _378  and  _381
REMARK  152  A    between atoms: _381  and  _382
REMARK  153  A    between atoms: _387  and  _388
REMARK  154  A    between atoms: _390  and  _392
REMARK  155  A    between atoms: _392  and  _393
REMARK  156  A    between atoms: _392  and  _395
REMARK  157  A    between atoms: _395  and  _396
REMARK  158  A    between atoms: _399  and  _401
REMARK  159  A    between atoms: _401  and  _402
REMARK  160  A    between atoms: _401  and  _404
REMARK  161  A    between atoms: _404  and  _405
REMARK  162  A    between atoms: _408  and  _410
REMARK  163  A    between atoms: _410  and  _411
REMARK  164  A    between atoms: _410  and  _413
REMARK  165  A    between atoms: _413  and  _414
REMARK  166  A    between atoms: _416  and  _418
REMARK  167  A    between atoms: _418  and  _419
REMARK  168  A    between atoms: _418  and  _421
REMARK  169  A    between atoms: _421  and  _422
REMARK  170  A    between atoms: _427  and  _428
REMARK  171  A    between atoms: _430  and  _432
REMARK  172  A    between atoms: _432  and  _433
REMARK  173  A    between atoms: _432  and  _435
REMARK  174  A    between atoms: _435  and  _436
REMARK  175  A    between atoms: _439  and  _441
REMARK  176  A    between atoms: _441  and  _442
REMARK  177  A    between atoms: _441  and  _444
REMARK  178  A    between atoms: _444  and  _445
REMARK  179  A    between atoms: _448  and  _450
REMARK  180  A    between atoms: _450  and  _451
REMARK  181  A    between atoms: _450  and  _453
REMARK  182  A    between atoms: _453  and  _454
REMARK  183  A    between atoms: _457  and  _458
REMARK  184  A    between atoms: _463  and  _465
REMARK  185  A    between atoms: _465  and  _466
REMARK  186  A    between atoms: _469  and  _471
REMARK  187  A    between atoms: _471  and  _472
REMARK  188  A    between atoms: _471  and  _474
REMARK  189  A    between atoms: _474  and  _475
REMARK  190  A    between atoms: _480  and  _481
REMARK  191  A    between atoms: _483  and  _485
REMARK  192  A    between atoms: _485  and  _486
REMARK  193  A    between atoms: _485  and  _488
REMARK  194  A    between atoms: _488  and  _489
REMARK  195  A    between atoms: _494  and  _496
REMARK  196  A    between atoms: _496  and  _497
REMARK  197  A    between atoms: _496  and  _499
REMARK  198  A    between atoms: _499  and  _500
REMARK  199  A    between atoms: _503  and  _505
REMARK  200  A    between atoms: _505  and  _506
REMARK  201  A    between atoms: _505  and  _508
REMARK  202  A    between atoms: _508  and  _509
REMARK  203  A    between atoms: _509  and  _510
REMARK  204  A    between atoms: _515  and  _517
REMARK  205  A    between atoms: _517  and  _518
REMARK  206  A    between atoms: _517  and  _520
REMARK  207  A    between atoms: _520  and  _521
REMARK  208  A    between atoms: _521  and  _522
REMARK  209  A    between atoms: _525  and  _527
REMARK  210  A    between atoms: _527  and  _528
REMARK  211  A    between atoms: _527  and  _530
REMARK  212  A    between atoms: _530  and  _531
REMARK  213  A    between atoms: _535  and  _536
REMARK  214  A    between atoms: _541  and  _543
REMARK  215  A    between atoms: _543  and  _544
REMARK  216  A    between atoms: _543  and  _546
REMARK  217  A    between atoms: _546  and  _547
REMARK  218  A    between atoms: _550  and  _552
REMARK  219  A    between atoms: _552  and  _553
REMARK  220  A    between atoms: _555  and  _557
REMARK  221  A    between atoms: _557  and  _558
REMARK  222  A    between atoms: _557  and  _560
REMARK  223  A    between atoms: _560  and  _561
REMARK  224  A    between atoms: _566  and  _568
REMARK  225  A    between atoms: _568  and  _569
REMARK  226  A    between atoms: _568  and  _571
REMARK  227  A    between atoms: _571  and  _572
REMARK  228  A    between atoms: _582  and  _584
REMARK  229  A    between atoms: _584  and  _585
REMARK  230  A    between atoms: _584  and  _587
REMARK  231  A    between atoms: _587  and  _588
REMARK  232  A    between atoms: _588  and  _589
REMARK  233  A    between atoms: _591  and  _593
REMARK  234  A    between atoms: _593  and  _594
REMARK  235  A    between atoms: _593  and  _596
REMARK  236  A    between atoms: _596  and  _597
REMARK  237  A    between atoms: _602  and  _603
REMARK                            x       y       z     vdW  Elec       q    Type
REMARK                         _______ _______ _______ _____ _____    ______ ____
ROOT
ATOM      1  CA  TRP A   1       7.289  46.726  99.976  0.00  0.00    +0.149 C 
ENDROOT
BRANCH   1   2
ATOM      2  C   TRP A   1       6.367  47.133 101.118  0.00  0.00    +0.239 C 
ATOM      3  O   TRP A   1       5.874  46.278 101.855  0.00  0.00    -0.274 OA
ATOM      4  N   GLY A   2       6.122  48.433 101.254  0.00  0.00    -0.296 N 
ATOM      5  H   GLY A   2       6.557  49.111 100.596  0.00  0.00    +0.150 HD
BRANCH   4   6
ATOM      6  CA  GLY A   2       5.252  48.916 102.314  0.00  0.00    +0.176 C 
BRANCH   6   7
ATOM      7  C   GLY A   2       3.785  48.939 101.920  0.00  0.00    +0.246 C 
ATOM      8  N   PRO A   3       2.925  49.630 102.681  0.00  0.00    -0.273 N 
ATOM      9  CD  PRO A   3       3.165  50.238 104.004  0.00  0.00    +0.094 C 
ATOM     10  CG  PRO A   3       1.840  50.918 104.302  0.00  0.00    +0.024 C 
ATOM     11  CB  PRO A   3       0.844  49.990 103.673  0.00  0.00    +0.030 C 
ATOM     12  CA  PRO A   3       1.503  49.679 102.336  0.00  0.00    +0.140 C 
ATOM     13  O   GLY A   2       3.408  48.327 100.927  0.00  0.00    -0.273 OA
BRANCH  12  14
ATOM     14  C   PRO A   3       1.194  50.735 101.274  0.00  0.00    +0.227 C 
ATOM     15  O   PRO A   3       0.164  50.668 100.605  0.00  0.00    -0.286 OA
ENDBRANCH  12  14
ENDBRANCH   6   7
ENDBRANCH   4   6
ENDBRANCH   1   2
BRANCH   1  16
ATOM     16  N   TRP A   1       7.724  47.853  99.166  0.00  0.00    -0.238 NA
ATOM     17  H   TRP A   1       8.559  48.402  99.456  0.00  0.00    +0.142 HD
ENDBRANCH   1  16
BRANCH   1  18
ATOM     18  CB  TRP A   1       8.512  45.983 100.516  0.00  0.00    +0.054 C 
BRANCH  18  19
ATOM     19  CG  TRP A   1       9.530  46.887 101.133  0.00  0.00    -0.002 A 
ATOM     20  CD1 TRP A   1       9.531  47.377 102.407  0.00  0.00    +0.068 A 
ATOM     21  NE1 TRP A   1      10.611  48.208 102.596  0.00  0.00    -0.352 N 
ATOM     22  HE1 TRP A   1      10.841  48.709 103.478  0.00  0.00    +0.166 HD
ATOM     23  CE2 TRP A   1      11.334  48.268 101.433  0.00  0.00    +0.056 A 
ATOM     24  CZ2 TRP A   1      12.504  48.977 101.132  0.00  0.00    +0.017 A 
ATOM     25  CH2 TRP A   1      13.017  48.848  99.864  0.00  0.00    +0.001 A 
ATOM     26  CZ3 TRP A   1      12.393  48.036  98.899  0.00  0.00    +0.000 A 
ATOM     27  CE3 TRP A   1      11.225  47.331  99.199  0.00  0.00    +0.001 A 
ATOM     28  CD2 TRP A   1      10.681  47.445 100.487  0.00  0.00    +0.013 A 
ENDBRANCH  18  19
ENDBRANCH   1  18
TORSDOF 7
REMARK  Name = ../refined-set-2016/2qry/2qry_pocket.pdb
REMARK  237 active torsions:
REMARK  status: ('A' for Active; 'I' for Inactive)
REMARK    1  A    between atoms: _1  and  _3
REMARK    2  A    between atoms: _3  and  _4
REMARK    3  A    between atoms: _3  and  _6
REMARK    4  A    between atoms: _6  and  _7
REMARK    5  A    between atoms: _10  and  _12
REMARK    6  A    between atoms: _12  and  _13
REMARK    7  A    between atoms: _12  and  _15
REMARK    8  A    between atoms: _15  and  _16
REMARK    9  A    between atoms: _21  and  _22
REMARK   10  A    between atoms: _24  and  _26
REMARK   11  A    between atoms: _26  and  _27
REMARK   12  A    between atoms: _26  and  _29
REMARK   13  A    between atoms: _29  and  _30
REMARK   14  A    between atoms: _33  and  _35
REMARK   15  A    between atoms: _35  and  _36
REMARK   16  A    between atoms: _35  and  _38
REMARK   17  A    between atoms: _38  and  _39
REMARK   18  A    between atoms: _41  and  _43
REMARK   19  A    between atoms: _43  and  _44
REMARK   20  A    between atoms: _43  and  _46
REMARK   21  A    between atoms: _46  and  _47
REMARK   22  A    between atoms: _53  and  _55
REMARK   23  A    between atoms: _55  and  _56
REMARK   24  A    between atoms: _59  and  _61
REMARK   25  A    between atoms: _61  and  _62
REMARK   26  A    between atoms: _61  and  _64
REMARK   27  A    between atoms: _64  and  _65
REMARK   28  A    between atoms: _75  and  _77
REMARK   29  A    between atoms: _77  and  _78
REMARK   30  A    between atoms: _81  and  _82
REMARK   31  A    between atoms: _87  and  _89
REMARK   32  A    between atoms: _89  and  _90
REMARK   33  A    between atoms: _89  and  _92
REMARK   34  A    between atoms: _92  and  _93
REMARK   35  A    between atoms: _93  and  _94
REMARK   36  A    between atoms: _97  and  _99
REMARK   37  A    between atoms: _99  and  _100
REMARK   38  A    between atoms: _99  and  _102
REMARK   39  A    between atoms: _102  and  _103
REMARK   40  A    between atoms: _106  and  _108
REMARK   41  A    between atoms: _108  and  _109
REMARK   42  A    between atoms: _111  and  _113
REMARK   43  A    between atoms: _113  and  _114
REMARK   44  A    between atoms: _113  and  _116
REMARK   45  A    between atoms: _119  and  _121
REMARK   46  A    between atoms: _121  and  _122
REMARK   47  A    between atoms: _121  and  _124
REMARK   48  A    between atoms: _124  and  _125
REMARK   49  A    between atoms: _127  and  _129
REMARK   50  A    between atoms: _129  and  _130
REMARK   51  A    between atoms: _129  and  _132
REMARK   52  A    between atoms: _132  and  _133
REMARK   53  A    between atoms: _136  and  _138
REMARK   54  A    between atoms: _138  and  _139
REMARK   55  A    between atoms: _141  and  _143
REMARK   56  A    between atoms: _143  and  _144
REMARK   57  A    between atoms: _143  and  _146
REMARK   58  A    between atoms: _146  and  _147
REMARK   59  A    between atoms: _150  and  _152
REMARK   60  A    between atoms: _152  and  _153
REMARK   61  A    between atoms: _152  and  _155
REMARK   62  A    between atoms: _155  and  _156
REMARK   63  A    between atoms: _159  and  _161
REMARK   64  A    between atoms: _161  and  _162
REMARK   65  A    between atoms: _161  and  _164
REMARK   66  A    between atoms: _164  and  _165
REMARK   67  A    between atoms: _171  and  _173
REMARK   68  A    between atoms: _173  and  _174
REMARK   69  A    between atoms: _173  and  _176
REMARK   70  A    between atoms: _176  and  _177
REMARK   71  A    between atoms: _180  and  _182
REMARK   72  A    between atoms: _182  and  _183
REMARK   73  A    between atoms: _182  and  _185
REMARK   74  A    between atoms: _185  and  _186
REMARK   75  A    between atoms: _191  and  _192
REMARK   76  A    between atoms: _194  and  _196
REMARK   77  A    between atoms: _196  and  _197
REMARK   78  A    between atoms: _199  and  _201
REMARK   79  A    between atoms: _201  and  _202
REMARK   80  A    between atoms: _201  and  _204
REMARK   81  A    between atoms: _204  and  _205
REMARK   82  A    between atoms: _211  and  _213
REMARK   83  A    between atoms: _213  and  _214
REMARK   84  A    between atoms: _213  and  _216
REMARK   85  A    between atoms: _219  and  _221
REMARK   86  A    between atoms: _221  and  _222
REMARK   87  A    between atoms: _221  and  _224
REMARK   88  A    between atoms: _224  and  _225
REMARK   89  A    between atoms: _225  and  _226
REMARK   90  A    between atoms: _231  and  _233
REMARK   91  A    between atoms: _233  and  _234
REMARK   92  A    between atoms: _233  and  _236
REMARK   93  A    between atoms: _236  and  _237
REMARK   94  A    between atoms: _240  and  _242
REMARK   95  A    between atoms: _242  and  _243
REMARK   96  A    between atoms: _242  and  _245
REMARK   97  A    between atoms: _245  and  _246
REMARK   98  A    between atoms: _246  and  _247
REMARK   99  A    between atoms: _247  and  _248
REMARK  100  A    between atoms: _257  and  _259
REMARK  101  A    between atoms: _259  and  _260
REMARK  102  A    between atoms: _259  and  _262
REMARK  103  A    between atoms: _262  and  _263
REMARK  104  A    between atoms: _266  and  _268
REMARK  105  A    between atoms: _268  and  _269
REMARK  106  A    between atoms: _268  and  _271
REMARK  107  A    between atoms: _271  and  _272
REMARK  108  A    between atoms: _274  and  _276
REMARK  109  A    between atoms: _276  and  _277
REMARK  110  A    between atoms: _276  and  _279
REMARK  111  A    between atoms: _279  and  _280
REMARK  112  A    between atoms: _284  and  _285
REMARK  113  A    between atoms: _290  and  _292
REMARK  114  A    between atoms: _292  and  _293
REMARK  115  A    between atoms: _295  and  _297
REMARK  116  A    between atoms: _297  and  _298
REMARK  117  A    between atoms: _297  and  _300
REMARK  118  A    between atoms: _300  and  _301
REMARK  119  A    between atoms: _304  and  _306
REMARK  120  A    between atoms: _306  and  _307
REMARK  121  A    between atoms: _309  and  _311
REMARK  122  A    between atoms: _311  and  _312
REMARK  123  A    between atoms: _311  and  _314
REMARK  124  A    between atoms: _314  and  _315
REMARK  125  A    between atoms: _318  and  _320
REMARK  126  A    between atoms: _320  and  _321
REMARK  127  A    between atoms: _320  and  _323
REMARK  128  A    between atoms: _323  and  _324
REMARK  129  A    between atoms: _324  and  _325
REMARK  130  A    between atoms: _325  and  _326
REMARK  131  A    between atoms: _326  and  _327
REMARK  132  A    between atoms: _331  and  _333
REMARK  133  A    between atoms: _333  and  _334
REMARK  134  A    between atoms: _336  and  _338
REMARK  135  A    between atoms: _338  and  _339
REMARK  136  A    between atoms: _338  and  _341
REMARK  137  A    between atoms: _341  and  _342
REMARK  138  A    between atoms: _352  and  _354
REMARK  139  A    between atoms: _354  and  _355
REMARK  140  A    between atoms: _354  and  _357
REMARK  141  A    between atoms: _357  and  _358
REMARK  142  A    between atoms: _360  and  _362
REMARK  143  A    between atoms: _362  and  _363
REMARK  144  A    between atoms: _362  and  _365
REMARK  145  A    between atoms: _365  and  _366
REMARK  146  A    between atoms: _366  and  _367
REMARK  147  A    between atoms: _370  and  _372
REMARK  148  A    between atoms: _372  and  _373
REMARK  149  A    between atoms: _376  and  _378
REMARK  150  A    between atoms: _378  and  _379
REMARK  151  A    between atoms: _378  and  _381
REMARK  152  A    between atoms: _381  and  _382
REMARK  153  A    between atoms: _387  and  _388
REMARK  154  A    between atoms: _390  and  _392
REMARK  155  A    between atoms: _392  and  _393
REMARK  156  A    between atoms: _392  and  _395
REMARK  157  A    between atoms: _395  and  _396
REMARK  158  A    between atoms: _399  and  _401
REMARK  159  A    between atoms: _401  and  _402
REMARK  160  A    between atoms: _401  and  _404
REMARK  161  A    between atoms: _404  and  _405
REMARK  162  A    between atoms: _408  and  _410
REMARK  163  A    between atoms: _410  and  _411
REMARK  164  A    between atoms: _410  and  _413
REMARK  165  A    between atoms: _413  and  _414
REMARK  166  A    between atoms: _416  and  _418
REMARK  167  A    between atoms: _418  and  _419
REMARK  168  A    between atoms: _418  and  _421
REMARK  169  A    between atoms: _421  and  _422
REMARK  170  A    between atoms: _427  and  _428
REMARK  171  A    between atoms: _430  and  _432
REMARK  172  A    between atoms: _432  and  _433
REMARK  173  A    between atoms: _432  and  _435
REMARK  174  A    between atoms: _435  and  _436
REMARK  175  A    between atoms: _439  and  _441
REMARK  176  A    between atoms: _441  and  _442
REMARK  177  A    between atoms: _441  and  _444
REMARK  178  A    between atoms: _444  and  _445
REMARK  179  A    between atoms: _448  and  _450
REMARK  180  A    between atoms: _450  and  _451
REMARK  181  A    between atoms: _450  and  _453
REMARK  182  A    between atoms: _453  and  _454
REMARK  183  A    between atoms: _457  and  _458
REMARK  184  A    between atoms: _463  and  _465
REMARK  185  A    between atoms: _465  and  _466
REMARK  186  A    between atoms: _469  and  _471
REMARK  187  A    between atoms: _471  and  _472
REMARK  188  A    between atoms: _471  and  _474
REMARK  189  A    between atoms: _474  and  _475
REMARK  190  A    between atoms: _480  and  _481
REMARK  191  A    between atoms: _483  and  _485
REMARK  192  A    between atoms: _485  and  _486
REMARK  193  A    between atoms: _485  and  _488
REMARK  194  A    between atoms: _488  and  _489
REMARK  195  A    between atoms: _494  and  _496
REMARK  196  A    between atoms: _496  and  _497
REMARK  197  A    between atoms: _496  and  _499
REMARK  198  A    between atoms: _499  and  _500
REMARK  199  A    between atoms: _503  and  _505
REMARK  200  A    between atoms: _505  and  _506
REMARK  201  A    between atoms: _505  and  _508
REMARK  202  A    between atoms: _508  and  _509
REMARK  203  A    between atoms: _509  and  _510
REMARK  204  A    between atoms: _515  and  _517
REMARK  205  A    between atoms: _517  and  _518
REMARK  206  A    between atoms: _517  and  _520
REMARK  207  A    between atoms: _520  and  _521
REMARK  208  A    between atoms: _521  and  _522
REMARK  209  A    between atoms: _525  and  _527
REMARK  210  A    between atoms: _527  and  _528
REMARK  211  A    between atoms: _527  and  _530
REMARK  212  A    between atoms: _530  and  _531
REMARK  213  A    between atoms: _535  and  _536
REMARK  214  A    between atoms: _541  and  _543
REMARK  215  A    between atoms: _543  and  _544
REMARK  216  A    between atoms: _543  and  _546
REMARK  217  A    between atoms: _546  and  _547
REMARK  218  A    between atoms: _550  and  _552
REMARK  219  A    between atoms: _552  and  _553
REMARK  220  A    between atoms: _555  and  _557
REMARK  221  A    between atoms: _557  and  _558
REMARK  222  A    between atoms: _557  and  _560
REMARK  223  A    between atoms: _560  and  _561
REMARK  224  A    between atoms: _566  and  _568
REMARK  225  A    between atoms: _568  and  _569
REMARK  226  A    between atoms: _568  and  _571
REMARK  227  A    between atoms: _571  and  _572
REMARK  228  A    between atoms: _582  and  _584
REMARK  229  A    between atoms: _584  and  _585
REMARK  230  A    between atoms: _584  and  _587
REMARK  231  A    between atoms: _587  and  _588
REMARK  232  A    between atoms: _588  and  _589
REMARK  233  A    between atoms: _591  and  _593
REMARK  234  A    between atoms: _593  and  _594
REMARK  235  A    between atoms: _593  and  _596
REMARK  236  A    between atoms: _596  and  _597
REMARK  237  A    between atoms: _602  and  _603
REMARK                            x       y       z     vdW  Elec       q    Type
REMARK                         _______ _______ _______ _____ _____    ______ ____
ROOT
ATOM      1  C   GLY A   3       8.626  61.629 112.642  0.00  0.00    +0.243 C 
ATOM      2  N   VAL A   4       9.571  61.785 113.561  0.00  0.00    -0.297 N 
ATOM      3  H   VAL A   4      10.218  61.001 113.780  0.00  0.00    +0.150 HD
ATOM      4  O   GLY A   3       7.838  62.528 112.352  0.00  0.00    -0.273 OA
ENDROOT
BRANCH   2   5
ATOM      5  CA  VAL A   4       9.701  63.055 114.262  0.00  0.00    +0.149 C 
BRANCH   5   6
ATOM      6  C   VAL A   4      10.102  64.179 113.314  0.00  0.00    +0.241 C 
ATOM      7  O   VAL A   4       9.611  65.304 113.433  0.00  0.00    -0.273 OA
ATOM      8  N   SER A   5      10.983  63.873 112.365  0.00  0.00    -0.295 N 
ATOM      9  H   SER A   5      11.359  62.905 112.306  0.00  0.00    +0.150 HD
BRANCH   8  10
ATOM     10  CA  SER A   5      11.428  64.880 111.406  0.00  0.00    +0.178 C 
BRANCH  10  11
ATOM     11  C   SER A   5      10.299  65.413 110.529  0.00  0.00    +0.243 C 
ATOM     12  N   LEU A   6       9.283  64.589 110.282  0.00  0.00    -0.298 N 
ATOM     13  H   LEU A   6       9.291  63.623 110.668  0.00  0.00    +0.150 HD
ATOM     14  O   SER A   5      10.351  66.562 110.078  0.00  0.00    -0.273 OA
BRANCH  12  15
ATOM     15  CA  LEU A   6       8.161  65.039 109.472  0.00  0.00    +0.137 C 
BRANCH  15  16
ATOM     16  C   LEU A   6       7.617  66.336 110.079  0.00  0.00    +0.227 C 
ATOM     17  O   LEU A   6       7.417  67.330 109.378  0.00  0.00    -0.286 OA
ENDBRANCH  15  16
BRANCH  15  18
ATOM     18  CB  LEU A   6       7.061  63.969 109.424  0.00  0.00    +0.028 C 
BRANCH  18  19
ATOM     19  CG  LEU A   6       7.257  62.785 108.462  0.00  0.00    +0.002 C 
ATOM     20  CD2 LEU A   6       6.133  61.783 108.658  0.00  0.00    +0.000 C 
ATOM     21  CD1 LEU A   6       7.281  63.267 107.011  0.00  0.00    +0.000 C 
ENDBRANCH  18  19
ENDBRANCH  15  18
ENDBRANCH  12  15
ENDBRANCH  10  11
BRANCH  10  22
ATOM     22  CB  SER A   5      12.554  64.332 110.525  0.00  0.00    +0.166 C 
BRANCH  22  23
ATOM     23  OG  SER A   5      13.762  64.271 111.256  0.00  0.00    -0.380 OA
ATOM     24  H   SER A   5      14.480  63.915 110.675  0.00  0.00    +0.211 HD
ENDBRANCH  22  23
ENDBRANCH  10  22
ENDBRANCH   8  10
ENDBRANCH   5   6
BRANCH   5  25
ATOM     25  CB  VAL A   4      10.726  62.962 115.410  0.00  0.00    +0.027 C 
ATOM     26  CG2 VAL A   4      10.330  61.844 116.365  0.00  0.00    +0.002 C 
ATOM     27  CG1 VAL A   4      10.811  64.308 116.148  0.00  0.00    +0.002 C 
ENDBRANCH   5  25
ENDBRANCH   2   5
BRANCH   1  28
ATOM     28  CA  GLY A   3       8.523  60.273 111.966  0.00  0.00    +0.176 C 
BRANCH  28  30
ATOM     29  C   ASP A   2      10.290  60.642 110.330  0.00  0.00    +0.241 C 
ATOM     30  N   GLY A   3       9.595  59.813 111.102  0.00  0.00    -0.295 N 
ATOM     31  H   GLY A   3       9.827  58.799 111.087  0.00  0.00    +0.150 HD
ATOM     32  O   ASP A   2      10.084  61.858 110.291  0.00  0.00    -0.273 OA
BRANCH  29  33
ATOM     33  CA  ASP A   2      11.373  60.006 109.446  0.00  0.00    +0.160 C 
BRANCH  33  35
ATOM     34  C   GLU A   1      10.975  61.195 107.385  0.00  0.00    +0.238 C 
ATOM     35  N   ASP A   2      11.704  61.014 108.474  0.00  0.00    -0.297 N 
ATOM     36  H   ASP A   2      12.538  61.616 108.632  0.00  0.00    +0.150 HD
ATOM     37  O   GLU A   1      10.002  60.497 107.086  0.00  0.00    -0.274 OA
BRANCH  34  38
ATOM     38  CA  GLU A   1      11.414  62.350 106.511  0.00  0.00    +0.145 C 
BRANCH  38  39
ATOM     39  N   GLU A   1      10.623  62.348 105.294  0.00  0.00    -0.238 NA
ATOM     40  H   GLU A   1       9.662  61.951 105.306  0.00  0.00    +0.142 HD
ENDBRANCH  38  39
BRANCH  38  41
ATOM     41  CB  GLU A   1      11.169  63.641 107.306  0.00  0.00    +0.038 C 
BRANCH  41  42
ATOM     42  CG  GLU A   1      11.512  64.948 106.611  0.00  0.00    +0.116 C 
BRANCH  42  43
ATOM     43  CD  GLU A   1      12.984  65.294 106.706  0.00  0.00    +0.365 C 
ATOM     44  OE2 GLU A   1      13.705  64.657 107.503  0.00  0.00    -0.246 OA
ATOM     45  OE1 GLU A   1      13.418  66.219 105.990  0.00  0.00    -0.246 OA
ENDBRANCH  42  43
ENDBRANCH  41  42
ENDBRANCH  38  41
ENDBRANCH  34  38
ENDBRANCH  33  35
BRANCH  33  46
ATOM     46  CB  ASP A   2      12.622  59.635 110.243  0.00  0.00    +0.143 C 
BRANCH  46  47
ATOM     47  CG  ASP A   2      13.553  58.734 109.455  0.00  0.00    +0.367 C 
ATOM     48  OD2 ASP A   2      14.738  59.091 109.263  0.00  0.00    -0.246 OA
ATOM     49  OD1 ASP A   2      13.086  57.661 109.015  0.00  0.00    -0.246 OA
ENDBRANCH  46  47
ENDBRANCH  33  46
ENDBRANCH  29  33
ENDBRANCH  28  30
ENDBRANCH   1  28
TORSDOF 22
REMARK  Name = ../refined-set-2016/2qry/2qry_pocket.pdb
REMARK  237 active torsions:
REMARK  status: ('A' for Active; 'I' for Inactive)
REMARK    1  A    between atoms: _1  and  _3
REMARK    2  A    between atoms: _3  and  _4
REMARK    3  A    between atoms: _3  and  _6
REMARK    4  A    between atoms: _6  and  _7
REMARK    5  A    between atoms: _10  and  _12
REMARK    6  A    between atoms: _12  and  _13
REMARK    7  A    between atoms: _12  and  _15
REMARK    8  A    between atoms: _15  and  _16
REMARK    9  A    between atoms: _21  and  _22
REMARK   10  A    between atoms: _24  and  _26
REMARK   11  A    between atoms: _26  and  _27
REMARK   12  A    between atoms: _26  and  _29
REMARK   13  A    between atoms: _29  and  _30
REMARK   14  A    between atoms: _33  and  _35
REMARK   15  A    between atoms: _35  and  _36
REMARK   16  A    between atoms: _35  and  _38
REMARK   17  A    between atoms: _38  and  _39
REMARK   18  A    between atoms: _41  and  _43
REMARK   19  A    between atoms: _43  and  _44
REMARK   20  A    between atoms: _43  and  _46
REMARK   21  A    between atoms: _46  and  _47
REMARK   22  A    between atoms: _53  and  _55
REMARK   23  A    between atoms: _55  and  _56
REMARK   24  A    between atoms: _59  and  _61
REMARK   25  A    between atoms: _61  and  _62
REMARK   26  A    between atoms: _61  and  _64
REMARK   27  A    between atoms: _64  and  _65
REMARK   28  A    between atoms: _75  and  _77
REMARK   29  A    between atoms: _77  and  _78
REMARK   30  A    between atoms: _81  and  _82
REMARK   31  A    between atoms: _87  and  _89
REMARK   32  A    between atoms: _89  and  _90
REMARK   33  A    between atoms: _89  and  _92
REMARK   34  A    between atoms: _92  and  _93
REMARK   35  A    between atoms: _93  and  _94
REMARK   36  A    between atoms: _97  and  _99
REMARK   37  A    between atoms: _99  and  _100
REMARK   38  A    between atoms: _99  and  _102
REMARK   39  A    between atoms: _102  and  _103
REMARK   40  A    between atoms: _106  and  _108
REMARK   41  A    between atoms: _108  and  _109
REMARK   42  A    between atoms: _111  and  _113
REMARK   43  A    between atoms: _113  and  _114
REMARK   44  A    between atoms: _113  and  _116
REMARK   45  A    between atoms: _119  and  _121
REMARK   46  A    between atoms: _121  and  _122
REMARK   47  A    between atoms: _121  and  _124
REMARK   48  A    between atoms: _124  and  _125
REMARK   49  A    between atoms: _127  and  _129
REMARK   50  A    between atoms: _129  and  _130
REMARK   51  A    between atoms: _129  and  _132
REMARK   52  A    between atoms: _132  and  _133
REMARK   53  A    between atoms: _136  and  _138
REMARK   54  A    between atoms: _138  and  _139
REMARK   55  A    between atoms: _141  and  _143
REMARK   56  A    between atoms: _143  and  _144
REMARK   57  A    between atoms: _143  and  _146
REMARK   58  A    between atoms: _146  and  _147
REMARK   59  A    between atoms: _150  and  _152
REMARK   60  A    between atoms: _152  and  _153
REMARK   61  A    between atoms: _152  and  _155
REMARK   62  A    between atoms: _155  and  _156
REMARK   63  A    between atoms: _159  and  _161
REMARK   64  A    between atoms: _161  and  _162
REMARK   65  A    between atoms: _161  and  _164
REMARK   66  A    between atoms: _164  and  _165
REMARK   67  A    between atoms: _171  and  _173
REMARK   68  A    between atoms: _173  and  _174
REMARK   69  A    between atoms: _173  and  _176
REMARK   70  A    between atoms: _176  and  _177
REMARK   71  A    between atoms: _180  and  _182
REMARK   72  A    between atoms: _182  and  _183
REMARK   73  A    between atoms: _182  and  _185
REMARK   74  A    between atoms: _185  and  _186
REMARK   75  A    between atoms: _191  and  _192
REMARK   76  A    between atoms: _194  and  _196
REMARK   77  A    between atoms: _196  and  _197
REMARK   78  A    between atoms: _199  and  _201
REMARK   79  A    between atoms: _201  and  _202
REMARK   80  A    between atoms: _201  and  _204
REMARK   81  A    between atoms: _204  and  _205
REMARK   82  A    between atoms: _211  and  _213
REMARK   83  A    between atoms: _213  and  _214
REMARK   84  A    between atoms: _213  and  _216
REMARK   85  A    between atoms: _219  and  _221
REMARK   86  A    between atoms: _221  and  _222
REMARK   87  A    between atoms: _221  and  _224
REMARK   88  A    between atoms: _224  and  _225
REMARK   89  A    between atoms: _225  and  _226
REMARK   90  A    between atoms: _231  and  _233
REMARK   91  A    between atoms: _233  and  _234
REMARK   92  A    between atoms: _233  and  _236
REMARK   93  A    between atoms: _236  and  _237
REMARK   94  A    between atoms: _240  and  _242
REMARK   95  A    between atoms: _242  and  _243
REMARK   96  A    between atoms: _242  and  _245
REMARK   97  A    between atoms: _245  and  _246
REMARK   98  A    between atoms: _246  and  _247
REMARK   99  A    between atoms: _247  and  _248
REMARK  100  A    between atoms: _257  and  _259
REMARK  101  A    between atoms: _259  and  _260
REMARK  102  A    between atoms: _259  and  _262
REMARK  103  A    between atoms: _262  and  _263
REMARK  104  A    between atoms: _266  and  _268
REMARK  105  A    between atoms: _268  and  _269
REMARK  106  A    between atoms: _268  and  _271
REMARK  107  A    between atoms: _271  and  _272
REMARK  108  A    between atoms: _274  and  _276
REMARK  109  A    between atoms: _276  and  _277
REMARK  110  A    between atoms: _276  and  _279
REMARK  111  A    between atoms: _279  and  _280
REMARK  112  A    between atoms: _284  and  _285
REMARK  113  A    between atoms: _290  and  _292
REMARK  114  A    between atoms: _292  and  _293
REMARK  115  A    between atoms: _295  and  _297
REMARK  116  A    between atoms: _297  and  _298
REMARK  117  A    between atoms: _297  and  _300
REMARK  118  A    between atoms: _300  and  _301
REMARK  119  A    between atoms: _304  and  _306
REMARK  120  A    between atoms: _306  and  _307
REMARK  121  A    between atoms: _309  and  _311
REMARK  122  A    between atoms: _311  and  _312
REMARK  123  A    between atoms: _311  and  _314
REMARK  124  A    between atoms: _314  and  _315
REMARK  125  A    between atoms: _318  and  _320
REMARK  126  A    between atoms: _320  and  _321
REMARK  127  A    between atoms: _320  and  _323
REMARK  128  A    between atoms: _323  and  _324
REMARK  129  A    between atoms: _324  and  _325
REMARK  130  A    between atoms: _325  and  _326
REMARK  131  A    between atoms: _326  and  _327
REMARK  132  A    between atoms: _331  and  _333
REMARK  133  A    between atoms: _333  and  _334
REMARK  134  A    between atoms: _336  and  _338
REMARK  135  A    between atoms: _338  and  _339
REMARK  136  A    between atoms: _338  and  _341
REMARK  137  A    between atoms: _341  and  _342
REMARK  138  A    between atoms: _352  and  _354
REMARK  139  A    between atoms: _354  and  _355
REMARK  140  A    between atoms: _354  and  _357
REMARK  141  A    between atoms: _357  and  _358
REMARK  142  A    between atoms: _360  and  _362
REMARK  143  A    between atoms: _362  and  _363
REMARK  144  A    between atoms: _362  and  _365
REMARK  145  A    between atoms: _365  and  _366
REMARK  146  A    between atoms: _366  and  _367
REMARK  147  A    between atoms: _370  and  _372
REMARK  148  A    between atoms: _372  and  _373
REMARK  149  A    between atoms: _376  and  _378
REMARK  150  A    between atoms: _378  and  _379
REMARK  151  A    between atoms: _378  and  _381
REMARK  152  A    between atoms: _381  and  _382
REMARK  153  A    between atoms: _387  and  _388
REMARK  154  A    between atoms: _390  and  _392
REMARK  155  A    between atoms: _392  and  _393
REMARK  156  A    between atoms: _392  and  _395
REMARK  157  A    between atoms: _395  and  _396
REMARK  158  A    between atoms: _399  and  _401
REMARK  159  A    between atoms: _401  and  _402
REMARK  160  A    between atoms: _401  and  _404
REMARK  161  A    between atoms: _404  and  _405
REMARK  162  A    between atoms: _408  and  _410
REMARK  163  A    between atoms: _410  and  _411
REMARK  164  A    between atoms: _410  and  _413
REMARK  165  A    between atoms: _413  and  _414
REMARK  166  A    between atoms: _416  and  _418
REMARK  167  A    between atoms: _418  and  _419
REMARK  168  A    between atoms: _418  and  _421
REMARK  169  A    between atoms: _421  and  _422
REMARK  170  A    between atoms: _427  and  _428
REMARK  171  A    between atoms: _430  and  _432
REMARK  172  A    between atoms: _432  and  _433
REMARK  173  A    between atoms: _432  and  _435
REMARK  174  A    between atoms: _435  and  _436
REMARK  175  A    between atoms: _439  and  _441
REMARK  176  A    between atoms: _441  and  _442
REMARK  177  A    between atoms: _441  and  _444
REMARK  178  A    between atoms: _444  and  _445
REMARK  179  A    between atoms: _448  and  _450
REMARK  180  A    between atoms: _450  and  _451
REMARK  181  A    between atoms: _450  and  _453
REMARK  182  A    between atoms: _453  and  _454
REMARK  183  A    between atoms: _457  and  _458
REMARK  184  A    between atoms: _463  and  _465
REMARK  185  A    between atoms: _465  and  _466
REMARK  186  A    between atoms: _469  and  _471
REMARK  187  A    between atoms: _471  and  _472
REMARK  188  A    between atoms: _471  and  _474
REMARK  189  A    between atoms: _474  and  _475
REMARK  190  A    between atoms: _480  and  _481
REMARK  191  A    between atoms: _483  and  _485
REMARK  192  A    between atoms: _485  and  _486
REMARK  193  A    between atoms: _485  and  _488
REMARK  194  A    between atoms: _488  and  _489
REMARK  195  A    between atoms: _494  and  _496
REMARK  196  A    between atoms: _496  and  _497
REMARK  197  A    between atoms: _496  and  _499
REMARK  198  A    between atoms: _499  and  _500
REMARK  199  A    between atoms: _503  and  _505
REMARK  200  A    between atoms: _505  and  _506
REMARK  201  A    between atoms: _505  and  _508
REMARK  202  A    between atoms: _508  and  _509
REMARK  203  A    between atoms: _509  and  _510
REMARK  204  A    between atoms: _515  and  _517
REMARK  205  A    between atoms: _517  and  _518
REMARK  206  A    between atoms: _517  and  _520
REMARK  207  A    between atoms: _520  and  _521
REMARK  208  A    between atoms: _521  and  _522
REMARK  209  A    between atoms: _525  and  _527
REMARK  210  A    between atoms: _527  and  _528
REMARK  211  A    between atoms: _527  and  _530
REMARK  212  A    between atoms: _530  and  _531
REMARK  213  A    between atoms: _535  and  _536
REMARK  214  A    between atoms: _541  and  _543
REMARK  215  A    between atoms: _543  and  _544
REMARK  216  A    between atoms: _543  and  _546
REMARK  217  A    between atoms: _546  and  _547
REMARK  218  A    between atoms: _550  and  _552
REMARK  219  A    between atoms: _552  and  _553
REMARK  220  A    between atoms: _555  and  _557
REMARK  221  A    between atoms: _557  and  _558
REMARK  222  A    between atoms: _557  and  _560
REMARK  223  A    between atoms: _560  and  _561
REMARK  224  A    between atoms: _566  and  _568
REMARK  225  A    between atoms: _568  and  _569
REMARK  226  A    between atoms: _568  and  _571
REMARK  227  A    between atoms: _571  and  _572
REMARK  228  A    between atoms: _582  and  _584
REMARK  229  A    between atoms: _584  and  _585
REMARK  230  A    between atoms: _584  and  _587
REMARK  231  A    between atoms: _587  and  _588
REMARK  232  A    between atoms: _588  and  _589
REMARK  233  A    between atoms: _591  and  _593
REMARK  234  A    between atoms: _593  and  _594
REMARK  235  A    between atoms: _593  and  _596
REMARK  236  A    between atoms: _596  and  _597
REMARK  237  A    between atoms: _602  and  _603
REMARK                            x       y       z     vdW  Elec       q    Type
REMARK                         _______ _______ _______ _____ _____    ______ ____
ROOT
ATOM      1  CA  LEU A   2       3.374  61.256 113.162  0.00  0.00    +0.149 C 
ENDROOT
BRANCH   1   3
ATOM      2  C   GLY A   1       3.813  59.754 111.330  0.00  0.00    +0.240 C 
ATOM      3  N   LEU A   2       3.013  60.656 111.883  0.00  0.00    -0.297 N 
ATOM      4  H   LEU A   2       2.132  60.934 111.406  0.00  0.00    +0.150 HD
ATOM      5  O   GLY A   1       4.899  59.470 111.810  0.00  0.00    -0.274 OA
BRANCH   2   6
ATOM      6  CA  GLY A   1       3.370  59.097 110.038  0.00  0.00    +0.169 C 
BRANCH   6   7
ATOM      7  N   GLY A   1       2.207  59.669 109.395  0.00  0.00    -0.236 NA
ATOM      8  H   GLY A   1       1.320  59.801 109.922  0.00  0.00    +0.142 HD
ENDBRANCH   6   7
ENDBRANCH   2   6
ENDBRANCH   1   3
BRANCH   1   9
ATOM      9  C   LEU A   2       2.785  60.248 114.128  0.00  0.00    +0.241 C 
ATOM     10  N   ASP A   3       2.894  60.471 115.430  0.00  0.00    -0.298 N 
ATOM     11  H   ASP A   3       3.403  61.304 115.788  0.00  0.00    +0.150 HD
ATOM     12  O   LEU A   2       2.243  59.246 113.692  0.00  0.00    -0.273 OA
BRANCH  10  13
ATOM     13  CA  ASP A   3       2.282  59.518 116.347  0.00  0.00    +0.148 C 
BRANCH  13  14
ATOM     14  C   ASP A   3       1.803  60.167 117.634  0.00  0.00    +0.227 C 
ATOM     15  O   ASP A   3       1.915  61.379 117.811  0.00  0.00    -0.286 OA
ENDBRANCH  13  14
BRANCH  13  16
ATOM     16  CB  ASP A   3       3.215  58.327 116.635  0.00  0.00    +0.142 C 
BRANCH  16  17
ATOM     17  CG  ASP A   3       4.345  58.660 117.593  0.00  0.00    +0.367 C 
ATOM     18  OD2 ASP A   3       4.363  59.777 118.162  0.00  0.00    -0.246 OA
ATOM     19  OD1 ASP A   3       5.221  57.781 117.784  0.00  0.00    -0.246 OA
ENDBRANCH  16  17
ENDBRANCH  13  16
ENDBRANCH  10  13
ENDBRANCH   1   9
BRANCH   1  20
ATOM     20  CB  LEU A   2       2.690  62.604 113.359  0.00  0.00    +0.029 C 
BRANCH  20  21
ATOM     21  CG  LEU A   2       3.032  63.743 112.405  0.00  0.00    +0.002 C 
ATOM     22  CD2 LEU A   2       2.248  64.986 112.813  0.00  0.00    +0.000 C 
ATOM     23  CD1 LEU A   2       4.525  64.025 112.446  0.00  0.00    +0.000 C 
ENDBRANCH  20  21
ENDBRANCH   1  20
TORSDOF 10
REMARK  Name = ../refined-set-2016/2qry/2qry_pocket.pdb
REMARK  237 active torsions:
REMARK  status: ('A' for Active; 'I' for Inactive)
REMARK    1  A    between atoms: _1  and  _3
REMARK    2  A    between atoms: _3  and  _4
REMARK    3  A    between atoms: _3  and  _6
REMARK    4  A    between atoms: _6  and  _7
REMARK    5  A    between atoms: _10  and  _12
REMARK    6  A    between atoms: _12  and  _13
REMARK    7  A    between atoms: _12  and  _15
REMARK    8  A    between atoms: _15  and  _16
REMARK    9  A    between atoms: _21  and  _22
REMARK   10  A    between atoms: _24  and  _26
REMARK   11  A    between atoms: _26  and  _27
REMARK   12  A    between atoms: _26  and  _29
REMARK   13  A    between atoms: _29  and  _30
REMARK   14  A    between atoms: _33  and  _35
REMARK   15  A    between atoms: _35  and  _36
REMARK   16  A    between atoms: _35  and  _38
REMARK   17  A    between atoms: _38  and  _39
REMARK   18  A    between atoms: _41  and  _43
REMARK   19  A    between atoms: _43  and  _44
REMARK   20  A    between atoms: _43  and  _46
REMARK   21  A    between atoms: _46  and  _47
REMARK   22  A    between atoms: _53  and  _55
REMARK   23  A    between atoms: _55  and  _56
REMARK   24  A    between atoms: _59  and  _61
REMARK   25  A    between atoms: _61  and  _62
REMARK   26  A    between atoms: _61  and  _64
REMARK   27  A    between atoms: _64  and  _65
REMARK   28  A    between atoms: _75  and  _77
REMARK   29  A    between atoms: _77  and  _78
REMARK   30  A    between atoms: _81  and  _82
REMARK   31  A    between atoms: _87  and  _89
REMARK   32  A    between atoms: _89  and  _90
REMARK   33  A    between atoms: _89  and  _92
REMARK   34  A    between atoms: _92  and  _93
REMARK   35  A    between atoms: _93  and  _94
REMARK   36  A    between atoms: _97  and  _99
REMARK   37  A    between atoms: _99  and  _100
REMARK   38  A    between atoms: _99  and  _102
REMARK   39  A    between atoms: _102  and  _103
REMARK   40  A    between atoms: _106  and  _108
REMARK   41  A    between atoms: _108  and  _109
REMARK   42  A    between atoms: _111  and  _113
REMARK   43  A    between atoms: _113  and  _114
REMARK   44  A    between atoms: _113  and  _116
REMARK   45  A    between atoms: _119  and  _121
REMARK   46  A    between atoms: _121  and  _122
REMARK   47  A    between atoms: _121  and  _124
REMARK   48  A    between atoms: _124  and  _125
REMARK   49  A    between atoms: _127  and  _129
REMARK   50  A    between atoms: _129  and  _130
REMARK   51  A    between atoms: _129  and  _132
REMARK   52  A    between atoms: _132  and  _133
REMARK   53  A    between atoms: _136  and  _138
REMARK   54  A    between atoms: _138  and  _139
REMARK   55  A    between atoms: _141  and  _143
REMARK   56  A    between atoms: _143  and  _144
REMARK   57  A    between atoms: _143  and  _146
REMARK   58  A    between atoms: _146  and  _147
REMARK   59  A    between atoms: _150  and  _152
REMARK   60  A    between atoms: _152  and  _153
REMARK   61  A    between atoms: _152  and  _155
REMARK   62  A    between atoms: _155  and  _156
REMARK   63  A    between atoms: _159  and  _161
REMARK   64  A    between atoms: _161  and  _162
REMARK   65  A    between atoms: _161  and  _164
REMARK   66  A    between atoms: _164  and  _165
REMARK   67  A    between atoms: _171  and  _173
REMARK   68  A    between atoms: _173  and  _174
REMARK   69  A    between atoms: _173  and  _176
REMARK   70  A    between atoms: _176  and  _177
REMARK   71  A    between atoms: _180  and  _182
REMARK   72  A    between atoms: _182  and  _183
REMARK   73  A    between atoms: _182  and  _185
REMARK   74  A    between atoms: _185  and  _186
REMARK   75  A    between atoms: _191  and  _192
REMARK   76  A    between atoms: _194  and  _196
REMARK   77  A    between atoms: _196  and  _197
REMARK   78  A    between atoms: _199  and  _201
REMARK   79  A    between atoms: _201  and  _202
REMARK   80  A    between atoms: _201  and  _204
REMARK   81  A    between atoms: _204  and  _205
REMARK   82  A    between atoms: _211  and  _213
REMARK   83  A    between atoms: _213  and  _214
REMARK   84  A    between atoms: _213  and  _216
REMARK   85  A    between atoms: _219  and  _221
REMARK   86  A    between atoms: _221  and  _222
REMARK   87  A    between atoms: _221  and  _224
REMARK   88  A    between atoms: _224  and  _225
REMARK   89  A    between atoms: _225  and  _226
REMARK   90  A    between atoms: _231  and  _233
REMARK   91  A    between atoms: _233  and  _234
REMARK   92  A    between atoms: _233  and  _236
REMARK   93  A    between atoms: _236  and  _237
REMARK   94  A    between atoms: _240  and  _242
REMARK   95  A    between atoms: _242  and  _243
REMARK   96  A    between atoms: _242  and  _245
REMARK   97  A    between atoms: _245  and  _246
REMARK   98  A    between atoms: _246  and  _247
REMARK   99  A    between atoms: _247  and  _248
REMARK  100  A    between atoms: _257  and  _259
REMARK  101  A    between atoms: _259  and  _260
REMARK  102  A    between atoms: _259  and  _262
REMARK  103  A    between atoms: _262  and  _263
REMARK  104  A    between atoms: _266  and  _268
REMARK  105  A    between atoms: _268  and  _269
REMARK  106  A    between atoms: _268  and  _271
REMARK  107  A    between atoms: _271  and  _272
REMARK  108  A    between atoms: _274  and  _276
REMARK  109  A    between atoms: _276  and  _277
REMARK  110  A    between atoms: _276  and  _279
REMARK  111  A    between atoms: _279  and  _280
REMARK  112  A    between atoms: _284  and  _285
REMARK  113  A    between atoms: _290  and  _292
REMARK  114  A    between atoms: _292  and  _293
REMARK  115  A    between atoms: _295  and  _297
REMARK  116  A    between atoms: _297  and  _298
REMARK  117  A    between atoms: _297  and  _300
REMARK  118  A    between atoms: _300  and  _301
REMARK  119  A    between atoms: _304  and  _306
REMARK  120  A    between atoms: _306  and  _307
REMARK  121  A    between atoms: _309  and  _311
REMARK  122  A    between atoms: _311  and  _312
REMARK  123  A    between atoms: _311  and  _314
REMARK  124  A    between atoms: _314  and  _315
REMARK  125  A    between atoms: _318  and  _320
REMARK  126  A    between atoms: _320  and  _321
REMARK  127  A    between atoms: _320  and  _323
REMARK  128  A    between atoms: _323  and  _324
REMARK  129  A    between atoms: _324  and  _325
REMARK  130  A    between atoms: _325  and  _326
REMARK  131  A    between atoms: _326  and  _327
REMARK  132  A    between atoms: _331  and  _333
REMARK  133  A    between atoms: _333  and  _334
REMARK  134  A    between atoms: _336  and  _338
REMARK  135  A    between atoms: _338  and  _339
REMARK  136  A    between atoms: _338  and  _341
REMARK  137  A    between atoms: _341  and  _342
REMARK  138  A    between atoms: _352  and  _354
REMARK  139  A    between atoms: _354  and  _355
REMARK  140  A    between atoms: _354  and  _357
REMARK  141  A    between atoms: _357  and  _358
REMARK  142  A    between atoms: _360  and  _362
REMARK  143  A    between atoms: _362  and  _363
REMARK  144  A    between atoms: _362  and  _365
REMARK  145  A    between atoms: _365  and  _366
REMARK  146  A    between atoms: _366  and  _367
REMARK  147  A    between atoms: _370  and  _372
REMARK  148  A    between atoms: _372  and  _373
REMARK  149  A    between atoms: _376  and  _378
REMARK  150  A    between atoms: _378  and  _379
REMARK  151  A    between atoms: _378  and  _381
REMARK  152  A    between atoms: _381  and  _382
REMARK  153  A    between atoms: _387  and  _388
REMARK  154  A    between atoms: _390  and  _392
REMARK  155  A    between atoms: _392  and  _393
REMARK  156  A    between atoms: _392  and  _395
REMARK  157  A    between atoms: _395  and  _396
REMARK  158  A    between atoms: _399  and  _401
REMARK  159  A    between atoms: _401  and  _402
REMARK  160  A    between atoms: _401  and  _404
REMARK  161  A    between atoms: _404  and  _405
REMARK  162  A    between atoms: _408  and  _410
REMARK  163  A    between atoms: _410  and  _411
REMARK  164  A    between atoms: _410  and  _413
REMARK  165  A    between atoms: _413  and  _414
REMARK  166  A    between atoms: _416  and  _418
REMARK  167  A    between atoms: _418  and  _419
REMARK  168  A    between atoms: _418  and  _421
REMARK  169  A    between atoms: _421  and  _422
REMARK  170  A    between atoms: _427  and  _428
REMARK  171  A    between atoms: _430  and  _432
REMARK  172  A    between atoms: _432  and  _433
REMARK  173  A    between atoms: _432  and  _435
REMARK  174  A    between atoms: _435  and  _436
REMARK  175  A    between atoms: _439  and  _441
REMARK  176  A    between atoms: _441  and  _442
REMARK  177  A    between atoms: _441  and  _444
REMARK  178  A    between atoms: _444  and  _445
REMARK  179  A    between atoms: _448  and  _450
REMARK  180  A    between atoms: _450  and  _451
REMARK  181  A    between atoms: _450  and  _453
REMARK  182  A    between atoms: _453  and  _454
REMARK  183  A    between atoms: _457  and  _458
REMARK  184  A    between atoms: _463  and  _465
REMARK  185  A    between atoms: _465  and  _466
REMARK  186  A    between atoms: _469  and  _471
REMARK  187  A    between atoms: _471  and  _472
REMARK  188  A    between atoms: _471  and  _474
REMARK  189  A    between atoms: _474  and  _475
REMARK  190  A    between atoms: _480  and  _481
REMARK  191  A    between atoms: _483  and  _485
REMARK  192  A    between atoms: _485  and  _486
REMARK  193  A    between atoms: _485  and  _488
REMARK  194  A    between atoms: _488  and  _489
REMARK  195  A    between atoms: _494  and  _496
REMARK  196  A    between atoms: _496  and  _497
REMARK  197  A    between atoms: _496  and  _499
REMARK  198  A    between atoms: _499  and  _500
REMARK  199  A    between atoms: _503  and  _505
REMARK  200  A    between atoms: _505  and  _506
REMARK  201  A    between atoms: _505  and  _508
REMARK  202  A    between atoms: _508  and  _509
REMARK  203  A    between atoms: _509  and  _510
REMARK  204  A    between atoms: _515  and  _517
REMARK  205  A    between atoms: _517  and  _518
REMARK  206  A    between atoms: _517  and  _520
REMARK  207  A    between atoms: _520  and  _521
REMARK  208  A    between atoms: _521  and  _522
REMARK  209  A    between atoms: _525  and  _527
REMARK  210  A    between atoms: _527  and  _528
REMARK  211  A    between atoms: _527  and  _530
REMARK  212  A    between atoms: _530  and  _531
REMARK  213  A    between atoms: _535  and  _536
REMARK  214  A    between atoms: _541  and  _543
REMARK  215  A    between atoms: _543  and  _544
REMARK  216  A    between atoms: _543  and  _546
REMARK  217  A    between atoms: _546  and  _547
REMARK  218  A    between atoms: _550  and  _552
REMARK  219  A    between atoms: _552  and  _553
REMARK  220  A    between atoms: _555  and  _557
REMARK  221  A    between atoms: _557  and  _558
REMARK  222  A    between atoms: _557  and  _560
REMARK  223  A    between atoms: _560  and  _561
REMARK  224  A    between atoms: _566  and  _568
REMARK  225  A    between atoms: _568  and  _569
REMARK  226  A    between atoms: _568  and  _571
REMARK  227  A    between atoms: _571  and  _572
REMARK  228  A    between atoms: _582  and  _584
REMARK  229  A    between atoms: _584  and  _585
REMARK  230  A    between atoms: _584  and  _587
REMARK  231  A    between atoms: _587  and  _588
REMARK  232  A    between atoms: _588  and  _589
REMARK  233  A    between atoms: _591  and  _593
REMARK  234  A    between atoms: _593  and  _594
REMARK  235  A    between atoms: _593  and  _596
REMARK  236  A    between atoms: _596  and  _597
REMARK  237  A    between atoms: _602  and  _603
REMARK                            x       y       z     vdW  Elec       q    Type
REMARK                         _______ _______ _______ _____ _____    ______ ____
ROOT
ATOM      1  C   ASP A   2      -1.613  51.950 114.494  0.00  0.00    +0.241 C 
ATOM      2  N   TYR A   3      -1.298  50.858 115.182  0.00  0.00    -0.297 N 
ATOM      3  H   TYR A   3      -1.539  49.920 114.802  0.00  0.00    +0.150 HD
ATOM      4  O   ASP A   2      -1.387  53.084 114.911  0.00  0.00    -0.273 OA
ENDROOT
BRANCH   1   5
ATOM      5  CA  ASP A   2      -2.322  51.738 113.160  0.00  0.00    +0.160 C 
BRANCH   5   7
ATOM      6  C   PHE A   1      -3.631  53.029 111.535  0.00  0.00    +0.239 C 
ATOM      7  N   ASP A   2      -2.889  52.985 112.640  0.00  0.00    -0.297 N 
ATOM      8  H   ASP A   2      -2.705  53.870 113.154  0.00  0.00    +0.150 HD
ATOM      9  O   PHE A   1      -3.848  52.041 110.836  0.00  0.00    -0.274 OA
BRANCH   6  10
ATOM     10  CA  PHE A   1      -4.228  54.388 111.167  0.00  0.00    +0.149 C 
BRANCH  10  11
ATOM     11  N   PHE A   1      -4.112  55.325 112.274  0.00  0.00    -0.238 NA
ATOM     12  H   PHE A   1      -3.195  55.448 112.748  0.00  0.00    +0.142 HD
ENDBRANCH  10  11
BRANCH  10  13
ATOM     13  CB  PHE A   1      -3.624  54.967 109.872  0.00  0.00    +0.053 C 
BRANCH  13  14
ATOM     14  CG  PHE A   1      -2.136  55.208 109.911  0.00  0.00    -0.020 A 
ATOM     15  CD2 PHE A   1      -1.634  56.500 110.056  0.00  0.00    -0.004 A 
ATOM     16  CE2 PHE A   1      -0.269  56.751 109.985  0.00  0.00    -0.000 A 
ATOM     17  CZ  PHE A   1       0.611  55.705 109.773  0.00  0.00    -0.000 A 
ATOM     18  CE1 PHE A   1       0.127  54.405 109.634  0.00  0.00    -0.000 A 
ATOM     19  CD1 PHE A   1      -1.239  54.164 109.706  0.00  0.00    -0.004 A 
ENDBRANCH  13  14
ENDBRANCH  10  13
ENDBRANCH   6  10
ENDBRANCH   5   7
BRANCH   5  20
ATOM     20  CB  ASP A   2      -1.377  51.044 112.153  0.00  0.00    +0.143 C 
BRANCH  20  21
ATOM     21  CG  ASP A   2      -0.079  51.799 111.910  0.00  0.00    +0.367 C 
ATOM     22  OD2 ASP A   2       0.414  52.514 112.815  0.00  0.00    -0.246 OA
ATOM     23  OD1 ASP A   2       0.469  51.648 110.797  0.00  0.00    -0.246 OA
ENDBRANCH  20  21
ENDBRANCH   5  20
ENDBRANCH   1   5
BRANCH   2  24
ATOM     24  CA  TYR A   3      -0.617  50.967 116.466  0.00  0.00    +0.153 C 
BRANCH  24  25
ATOM     25  C   TYR A   3       0.291  49.771 116.709  0.00  0.00    +0.241 C 
ATOM     26  N   GLY A   4       1.205  49.917 117.658  0.00  0.00    -0.296 N 
ATOM     27  H   GLY A   4       1.265  50.810 118.188  0.00  0.00    +0.150 HD
ATOM     28  O   TYR A   3       0.176  48.747 116.042  0.00  0.00    -0.273 OA
BRANCH  26  29
ATOM     29  CA  GLY A   4       2.120  48.837 117.959  0.00  0.00    +0.163 C 
BRANCH  29  30
ATOM     30  C   GLY A   4       2.877  49.080 119.245  0.00  0.00    +0.229 C 
ATOM     31  O   GLY A   4       2.583  50.020 119.989  0.00  0.00    -0.286 OA
ENDBRANCH  29  30
ENDBRANCH  26  29
ENDBRANCH  24  25
BRANCH  24  32
ATOM     32  CB  TYR A   3      -1.637  51.107 117.607  0.00  0.00    +0.055 C 
BRANCH  32  33
ATOM     33  CG  TYR A   3      -2.435  49.853 117.912  0.00  0.00    -0.020 A 
ATOM     34  CD2 TYR A   3      -2.010  48.954 118.891  0.00  0.00    -0.001 A 
ATOM     35  CE2 TYR A   3      -2.737  47.802 119.179  0.00  0.00    +0.036 A 
ATOM     36  CZ  TYR A   3      -3.907  47.537 118.482  0.00  0.00    +0.134 A 
ATOM     37  CE1 TYR A   3      -4.352  48.413 117.500  0.00  0.00    +0.036 A 
ATOM     38  CD1 TYR A   3      -3.614  49.567 117.221  0.00  0.00    -0.001 A 
BRANCH  36  39
ATOM     39  OH  TYR A   3      -4.634  46.404 118.776  0.00  0.00    -0.506 OA
ATOM     40  HH  TYR A   3      -4.177  45.897 119.493  0.00  0.00    +0.292 HD
ENDBRANCH  36  39
ENDBRANCH  32  33
ENDBRANCH  24  32
ENDBRANCH   2  24
TORSDOF 15
REMARK  Name = ../refined-set-2016/2qry/2qry_pocket.pdb
REMARK  237 active torsions:
REMARK  status: ('A' for Active; 'I' for Inactive)
REMARK    1  A    between atoms: _1  and  _3
REMARK    2  A    between atoms: _3  and  _4
REMARK    3  A    between atoms: _3  and  _6
REMARK    4  A    between atoms: _6  and  _7
REMARK    5  A    between atoms: _10  and  _12
REMARK    6  A    between atoms: _12  and  _13
REMARK    7  A    between atoms: _12  and  _15
REMARK    8  A    between atoms: _15  and  _16
REMARK    9  A    between atoms: _21  and  _22
REMARK   10  A    between atoms: _24  and  _26
REMARK   11  A    between atoms: _26  and  _27
REMARK   12  A    between atoms: _26  and  _29
REMARK   13  A    between atoms: _29  and  _30
REMARK   14  A    between atoms: _33  and  _35
REMARK   15  A    between atoms: _35  and  _36
REMARK   16  A    between atoms: _35  and  _38
REMARK   17  A    between atoms: _38  and  _39
REMARK   18  A    between atoms: _41  and  _43
REMARK   19  A    between atoms: _43  and  _44
REMARK   20  A    between atoms: _43  and  _46
REMARK   21  A    between atoms: _46  and  _47
REMARK   22  A    between atoms: _53  and  _55
REMARK   23  A    between atoms: _55  and  _56
REMARK   24  A    between atoms: _59  and  _61
REMARK   25  A    between atoms: _61  and  _62
REMARK   26  A    between atoms: _61  and  _64
REMARK   27  A    between atoms: _64  and  _65
REMARK   28  A    between atoms: _75  and  _77
REMARK   29  A    between atoms: _77  and  _78
REMARK   30  A    between atoms: _81  and  _82
REMARK   31  A    between atoms: _87  and  _89
REMARK   32  A    between atoms: _89  and  _90
REMARK   33  A    between atoms: _89  and  _92
REMARK   34  A    between atoms: _92  and  _93
REMARK   35  A    between atoms: _93  and  _94
REMARK   36  A    between atoms: _97  and  _99
REMARK   37  A    between atoms: _99  and  _100
REMARK   38  A    between atoms: _99  and  _102
REMARK   39  A    between atoms: _102  and  _103
REMARK   40  A    between atoms: _106  and  _108
REMARK   41  A    between atoms: _108  and  _109
REMARK   42  A    between atoms: _111  and  _113
REMARK   43  A    between atoms: _113  and  _114
REMARK   44  A    between atoms: _113  and  _116
REMARK   45  A    between atoms: _119  and  _121
REMARK   46  A    between atoms: _121  and  _122
REMARK   47  A    between atoms: _121  and  _124
REMARK   48  A    between atoms: _124  and  _125
REMARK   49  A    between atoms: _127  and  _129
REMARK   50  A    between atoms: _129  and  _130
REMARK   51  A    between atoms: _129  and  _132
REMARK   52  A    between atoms: _132  and  _133
REMARK   53  A    between atoms: _136  and  _138
REMARK   54  A    between atoms: _138  and  _139
REMARK   55  A    between atoms: _141  and  _143
REMARK   56  A    between atoms: _143  and  _144
REMARK   57  A    between atoms: _143  and  _146
REMARK   58  A    between atoms: _146  and  _147
REMARK   59  A    between atoms: _150  and  _152
REMARK   60  A    between atoms: _152  and  _153
REMARK   61  A    between atoms: _152  and  _155
REMARK   62  A    between atoms: _155  and  _156
REMARK   63  A    between atoms: _159  and  _161
REMARK   64  A    between atoms: _161  and  _162
REMARK   65  A    between atoms: _161  and  _164
REMARK   66  A    between atoms: _164  and  _165
REMARK   67  A    between atoms: _171  and  _173
REMARK   68  A    between atoms: _173  and  _174
REMARK   69  A    between atoms: _173  and  _176
REMARK   70  A    between atoms: _176  and  _177
REMARK   71  A    between atoms: _180  and  _182
REMARK   72  A    between atoms: _182  and  _183
REMARK   73  A    between atoms: _182  and  _185
REMARK   74  A    between atoms: _185  and  _186
REMARK   75  A    between atoms: _191  and  _192
REMARK   76  A    between atoms: _194  and  _196
REMARK   77  A    between atoms: _196  and  _197
REMARK   78  A    between atoms: _199  and  _201
REMARK   79  A    between atoms: _201  and  _202
REMARK   80  A    between atoms: _201  and  _204
REMARK   81  A    between atoms: _204  and  _205
REMARK   82  A    between atoms: _211  and  _213
REMARK   83  A    between atoms: _213  and  _214
REMARK   84  A    between atoms: _213  and  _216
REMARK   85  A    between atoms: _219  and  _221
REMARK   86  A    between atoms: _221  and  _222
REMARK   87  A    between atoms: _221  and  _224
REMARK   88  A    between atoms: _224  and  _225
REMARK   89  A    between atoms: _225  and  _226
REMARK   90  A    between atoms: _231  and  _233
REMARK   91  A    between atoms: _233  and  _234
REMARK   92  A    between atoms: _233  and  _236
REMARK   93  A    between atoms: _236  and  _237
REMARK   94  A    between atoms: _240  and  _242
REMARK   95  A    between atoms: _242  and  _243
REMARK   96  A    between atoms: _242  and  _245
REMARK   97  A    between atoms: _245  and  _246
REMARK   98  A    between atoms: _246  and  _247
REMARK   99  A    between atoms: _247  and  _248
REMARK  100  A    between atoms: _257  and  _259
REMARK  101  A    between atoms: _259  and  _260
REMARK  102  A    between atoms: _259  and  _262
REMARK  103  A    between atoms: _262  and  _263
REMARK  104  A    between atoms: _266  and  _268
REMARK  105  A    between atoms: _268  and  _269
REMARK  106  A    between atoms: _268  and  _271
REMARK  107  A    between atoms: _271  and  _272
REMARK  108  A    between atoms: _274  and  _276
REMARK  109  A    between atoms: _276  and  _277
REMARK  110  A    between atoms: _276  and  _279
REMARK  111  A    between atoms: _279  and  _280
REMARK  112  A    between atoms: _284  and  _285
REMARK  113  A    between atoms: _290  and  _292
REMARK  114  A    between atoms: _292  and  _293
REMARK  115  A    between atoms: _295  and  _297
REMARK  116  A    between atoms: _297  and  _298
REMARK  117  A    between atoms: _297  and  _300
REMARK  118  A    between atoms: _300  and  _301
REMARK  119  A    between atoms: _304  and  _306
REMARK  120  A    between atoms: _306  and  _307
REMARK  121  A    between atoms: _309  and  _311
REMARK  122  A    between atoms: _311  and  _312
REMARK  123  A    between atoms: _311  and  _314
REMARK  124  A    between atoms: _314  and  _315
REMARK  125  A    between atoms: _318  and  _320
REMARK  126  A    between atoms: _320  and  _321
REMARK  127  A    between atoms: _320  and  _323
REMARK  128  A    between atoms: _323  and  _324
REMARK  129  A    between atoms: _324  and  _325
REMARK  130  A    between atoms: _325  and  _326
REMARK  131  A    between atoms: _326  and  _327
REMARK  132  A    between atoms: _331  and  _333
REMARK  133  A    between atoms: _333  and  _334
REMARK  134  A    between atoms: _336  and  _338
REMARK  135  A    between atoms: _338  and  _339
REMARK  136  A    between atoms: _338  and  _341
REMARK  137  A    between atoms: _341  and  _342
REMARK  138  A    between atoms: _352  and  _354
REMARK  139  A    between atoms: _354  and  _355
REMARK  140  A    between atoms: _354  and  _357
REMARK  141  A    between atoms: _357  and  _358
REMARK  142  A    between atoms: _360  and  _362
REMARK  143  A    between atoms: _362  and  _363
REMARK  144  A    between atoms: _362  and  _365
REMARK  145  A    between atoms: _365  and  _366
REMARK  146  A    between atoms: _366  and  _367
REMARK  147  A    between atoms: _370  and  _372
REMARK  148  A    between atoms: _372  and  _373
REMARK  149  A    between atoms: _376  and  _378
REMARK  150  A    between atoms: _378  and  _379
REMARK  151  A    between atoms: _378  and  _381
REMARK  152  A    between atoms: _381  and  _382
REMARK  153  A    between atoms: _387  and  _388
REMARK  154  A    between atoms: _390  and  _392
REMARK  155  A    between atoms: _392  and  _393
REMARK  156  A    between atoms: _392  and  _395
REMARK  157  A    between atoms: _395  and  _396
REMARK  158  A    between atoms: _399  and  _401
REMARK  159  A    between atoms: _401  and  _402
REMARK  160  A    between atoms: _401  and  _404
REMARK  161  A    between atoms: _404  and  _405
REMARK  162  A    between atoms: _408  and  _410
REMARK  163  A    between atoms: _410  and  _411
REMARK  164  A    between atoms: _410  and  _413
REMARK  165  A    between atoms: _413  and  _414
REMARK  166  A    between atoms: _416  and  _418
REMARK  167  A    between atoms: _418  and  _419
REMARK  168  A    between atoms: _418  and  _421
REMARK  169  A    between atoms: _421  and  _422
REMARK  170  A    between atoms: _427  and  _428
REMARK  171  A    between atoms: _430  and  _432
REMARK  172  A    between atoms: _432  and  _433
REMARK  173  A    between atoms: _432  and  _435
REMARK  174  A    between atoms: _435  and  _436
REMARK  175  A    between atoms: _439  and  _441
REMARK  176  A    between atoms: _441  and  _442
REMARK  177  A    between atoms: _441  and  _444
REMARK  178  A    between atoms: _444  and  _445
REMARK  179  A    between atoms: _448  and  _450
REMARK  180  A    between atoms: _450  and  _451
REMARK  181  A    between atoms: _450  and  _453
REMARK  182  A    between atoms: _453  and  _454
REMARK  183  A    between atoms: _457  and  _458
REMARK  184  A    between atoms: _463  and  _465
REMARK  185  A    between atoms: _465  and  _466
REMARK  186  A    between atoms: _469  and  _471
REMARK  187  A    between atoms: _471  and  _472
REMARK  188  A    between atoms: _471  and  _474
REMARK  189  A    between atoms: _474  and  _475
REMARK  190  A    between atoms: _480  and  _481
REMARK  191  A    between atoms: _483  and  _485
REMARK  192  A    between atoms: _485  and  _486
REMARK  193  A    between atoms: _485  and  _488
REMARK  194  A    between atoms: _488  and  _489
REMARK  195  A    between atoms: _494  and  _496
REMARK  196  A    between atoms: _496  and  _497
REMARK  197  A    between atoms: _496  and  _499
REMARK  198  A    between atoms: _499  and  _500
REMARK  199  A    between atoms: _503  and  _505
REMARK  200  A    between atoms: _505  and  _506
REMARK  201  A    between atoms: _505  and  _508
REMARK  202  A    between atoms: _508  and  _509
REMARK  203  A    between atoms: _509  and  _510
REMARK  204  A    between atoms: _515  and  _517
REMARK  205  A    between atoms: _517  and  _518
REMARK  206  A    between atoms: _517  and  _520
REMARK  207  A    between atoms: _520  and  _521
REMARK  208  A    between atoms: _521  and  _522
REMARK  209  A    between atoms: _525  and  _527
REMARK  210  A    between atoms: _527  and  _528
REMARK  211  A    between atoms: _527  and  _530
REMARK  212  A    between atoms: _530  and  _531
REMARK  213  A    between atoms: _535  and  _536
REMARK  214  A    between atoms: _541  and  _543
REMARK  215  A    between atoms: _543  and  _544
REMARK  216  A    between atoms: _543  and  _546
REMARK  217  A    between atoms: _546  and  _547
REMARK  218  A    between atoms: _550  and  _552
REMARK  219  A    between atoms: _552  and  _553
REMARK  220  A    between atoms: _555  and  _557
REMARK  221  A    between atoms: _557  and  _558
REMARK  222  A    between atoms: _557  and  _560
REMARK  223  A    between atoms: _560  and  _561
REMARK  224  A    between atoms: _566  and  _568
REMARK  225  A    between atoms: _568  and  _569
REMARK  226  A    between atoms: _568  and  _571
REMARK  227  A    between atoms: _571  and  _572
REMARK  228  A    between atoms: _582  and  _584
REMARK  229  A    between atoms: _584  and  _585
REMARK  230  A    between atoms: _584  and  _587
REMARK  231  A    between atoms: _587  and  _588
REMARK  232  A    between atoms: _588  and  _589
REMARK  233  A    between atoms: _591  and  _593
REMARK  234  A    between atoms: _593  and  _594
REMARK  235  A    between atoms: _593  and  _596
REMARK  236  A    between atoms: _596  and  _597
REMARK  237  A    between atoms: _602  and  _603
REMARK                            x       y       z     vdW  Elec       q    Type
REMARK                         _______ _______ _______ _____ _____    ______ ____
ROOT
ATOM      1  CB  PHE A   1       8.977  50.534 120.991  0.00  0.00    +0.051 C 
ENDROOT
BRANCH   1   2
ATOM      2  CG  PHE A   1       8.387  51.735 120.316  0.00  0.00    -0.020 A 
ATOM      3  CD2 PHE A   1       7.763  52.726 121.066  0.00  0.00    -0.004 A 
ATOM      4  CE2 PHE A   1       7.209  53.842 120.449  0.00  0.00    -0.000 A 
ATOM      5  CZ  PHE A   1       7.276  53.972 119.067  0.00  0.00    -0.000 A 
ATOM      6  CE1 PHE A   1       7.900  52.983 118.306  0.00  0.00    -0.000 A 
ATOM      7  CD1 PHE A   1       8.451  51.875 118.931  0.00  0.00    -0.004 A 
ENDBRANCH   1   2
BRANCH   1   8
ATOM      8  CA  PHE A   1       8.339  49.209 120.564  0.00  0.00    +0.137 C 
BRANCH   8   9
ATOM      9  N   PHE A   1       6.909  49.221 120.807  0.00  0.00    -0.239 NA
ATOM     10  H   PHE A   1       6.483  50.017 121.323  0.00  0.00    +0.142 HD
ENDBRANCH   8   9
BRANCH   8  11
ATOM     11  C   PHE A   1       8.963  48.068 121.355  0.00  0.00    +0.224 C 
ATOM     12  O   PHE A   1       8.581  47.800 122.497  0.00  0.00    -0.287 OA
ENDBRANCH   8  11
ENDBRANCH   1   8
TORSDOF 4
REMARK  Name = ../refined-set-2016/2qry/2qry_pocket.pdb
REMARK  237 active torsions:
REMARK  status: ('A' for Active; 'I' for Inactive)
REMARK    1  A    between atoms: _1  and  _3
REMARK    2  A    between atoms: _3  and  _4
REMARK    3  A    between atoms: _3  and  _6
REMARK    4  A    between atoms: _6  and  _7
REMARK    5  A    between atoms: _10  and  _12
REMARK    6  A    between atoms: _12  and  _13
REMARK    7  A    between atoms: _12  and  _15
REMARK    8  A    between atoms: _15  and  _16
REMARK    9  A    between atoms: _21  and  _22
REMARK   10  A    between atoms: _24  and  _26
REMARK   11  A    between atoms: _26  and  _27
REMARK   12  A    between atoms: _26  and  _29
REMARK   13  A    between atoms: _29  and  _30
REMARK   14  A    between atoms: _33  and  _35
REMARK   15  A    between atoms: _35  and  _36
REMARK   16  A    between atoms: _35  and  _38
REMARK   17  A    between atoms: _38  and  _39
REMARK   18  A    between atoms: _41  and  _43
REMARK   19  A    between atoms: _43  and  _44
REMARK   20  A    between atoms: _43  and  _46
REMARK   21  A    between atoms: _46  and  _47
REMARK   22  A    between atoms: _53  and  _55
REMARK   23  A    between atoms: _55  and  _56
REMARK   24  A    between atoms: _59  and  _61
REMARK   25  A    between atoms: _61  and  _62
REMARK   26  A    between atoms: _61  and  _64
REMARK   27  A    between atoms: _64  and  _65
REMARK   28  A    between atoms: _75  and  _77
REMARK   29  A    between atoms: _77  and  _78
REMARK   30  A    between atoms: _81  and  _82
REMARK   31  A    between atoms: _87  and  _89
REMARK   32  A    between atoms: _89  and  _90
REMARK   33  A    between atoms: _89  and  _92
REMARK   34  A    between atoms: _92  and  _93
REMARK   35  A    between atoms: _93  and  _94
REMARK   36  A    between atoms: _97  and  _99
REMARK   37  A    between atoms: _99  and  _100
REMARK   38  A    between atoms: _99  and  _102
REMARK   39  A    between atoms: _102  and  _103
REMARK   40  A    between atoms: _106  and  _108
REMARK   41  A    between atoms: _108  and  _109
REMARK   42  A    between atoms: _111  and  _113
REMARK   43  A    between atoms: _113  and  _114
REMARK   44  A    between atoms: _113  and  _116
REMARK   45  A    between atoms: _119  and  _121
REMARK   46  A    between atoms: _121  and  _122
REMARK   47  A    between atoms: _121  and  _124
REMARK   48  A    between atoms: _124  and  _125
REMARK   49  A    between atoms: _127  and  _129
REMARK   50  A    between atoms: _129  and  _130
REMARK   51  A    between atoms: _129  and  _132
REMARK   52  A    between atoms: _132  and  _133
REMARK   53  A    between atoms: _136  and  _138
REMARK   54  A    between atoms: _138  and  _139
REMARK   55  A    between atoms: _141  and  _143
REMARK   56  A    between atoms: _143  and  _144
REMARK   57  A    between atoms: _143  and  _146
REMARK   58  A    between atoms: _146  and  _147
REMARK   59  A    between atoms: _150  and  _152
REMARK   60  A    between atoms: _152  and  _153
REMARK   61  A    between atoms: _152  and  _155
REMARK   62  A    between atoms: _155  and  _156
REMARK   63  A    between atoms: _159  and  _161
REMARK   64  A    between atoms: _161  and  _162
REMARK   65  A    between atoms: _161  and  _164
REMARK   66  A    between atoms: _164  and  _165
REMARK   67  A    between atoms: _171  and  _173
REMARK   68  A    between atoms: _173  and  _174
REMARK   69  A    between atoms: _173  and  _176
REMARK   70  A    between atoms: _176  and  _177
REMARK   71  A    between atoms: _180  and  _182
REMARK   72  A    between atoms: _182  and  _183
REMARK   73  A    between atoms: _182  and  _185
REMARK   74  A    between atoms: _185  and  _186
REMARK   75  A    between atoms: _191  and  _192
REMARK   76  A    between atoms: _194  and  _196
REMARK   77  A    between atoms: _196  and  _197
REMARK   78  A    between atoms: _199  and  _201
REMARK   79  A    between atoms: _201  and  _202
REMARK   80  A    between atoms: _201  and  _204
REMARK   81  A    between atoms: _204  and  _205
REMARK   82  A    between atoms: _211  and  _213
REMARK   83  A    between atoms: _213  and  _214
REMARK   84  A    between atoms: _213  and  _216
REMARK   85  A    between atoms: _219  and  _221
REMARK   86  A    between atoms: _221  and  _222
REMARK   87  A    between atoms: _221  and  _224
REMARK   88  A    between atoms: _224  and  _225
REMARK   89  A    between atoms: _225  and  _226
REMARK   90  A    between atoms: _231  and  _233
REMARK   91  A    between atoms: _233  and  _234
REMARK   92  A    between atoms: _233  and  _236
REMARK   93  A    between atoms: _236  and  _237
REMARK   94  A    between atoms: _240  and  _242
REMARK   95  A    between atoms: _242  and  _243
REMARK   96  A    between atoms: _242  and  _245
REMARK   97  A    between atoms: _245  and  _246
REMARK   98  A    between atoms: _246  and  _247
REMARK   99  A    between atoms: _247  and  _248
REMARK  100  A    between atoms: _257  and  _259
REMARK  101  A    between atoms: _259  and  _260
REMARK  102  A    between atoms: _259  and  _262
REMARK  103  A    between atoms: _262  and  _263
REMARK  104  A    between atoms: _266  and  _268
REMARK  105  A    between atoms: _268  and  _269
REMARK  106  A    between atoms: _268  and  _271
REMARK  107  A    between atoms: _271  and  _272
REMARK  108  A    between atoms: _274  and  _276
REMARK  109  A    between atoms: _276  and  _277
REMARK  110  A    between atoms: _276  and  _279
REMARK  111  A    between atoms: _279  and  _280
REMARK  112  A    between atoms: _284  and  _285
REMARK  113  A    between atoms: _290  and  _292
REMARK  114  A    between atoms: _292  and  _293
REMARK  115  A    between atoms: _295  and  _297
REMARK  116  A    between atoms: _297  and  _298
REMARK  117  A    between atoms: _297  and  _300
REMARK  118  A    between atoms: _300  and  _301
REMARK  119  A    between atoms: _304  and  _306
REMARK  120  A    between atoms: _306  and  _307
REMARK  121  A    between atoms: _309  and  _311
REMARK  122  A    between atoms: _311  and  _312
REMARK  123  A    between atoms: _311  and  _314
REMARK  124  A    between atoms: _314  and  _315
REMARK  125  A    between atoms: _318  and  _320
REMARK  126  A    between atoms: _320  and  _321
REMARK  127  A    between atoms: _320  and  _323
REMARK  128  A    between atoms: _323  and  _324
REMARK  129  A    between atoms: _324  and  _325
REMARK  130  A    between atoms: _325  and  _326
REMARK  131  A    between atoms: _326  and  _327
REMARK  132  A    between atoms: _331  and  _333
REMARK  133  A    between atoms: _333  and  _334
REMARK  134  A    between atoms: _336  and  _338
REMARK  135  A    between atoms: _338  and  _339
REMARK  136  A    between atoms: _338  and  _341
REMARK  137  A    between atoms: _341  and  _342
REMARK  138  A    between atoms: _352  and  _354
REMARK  139  A    between atoms: _354  and  _355
REMARK  140  A    between atoms: _354  and  _357
REMARK  141  A    between atoms: _357  and  _358
REMARK  142  A    between atoms: _360  and  _362
REMARK  143  A    between atoms: _362  and  _363
REMARK  144  A    between atoms: _362  and  _365
REMARK  145  A    between atoms: _365  and  _366
REMARK  146  A    between atoms: _366  and  _367
REMARK  147  A    between atoms: _370  and  _372
REMARK  148  A    between atoms: _372  and  _373
REMARK  149  A    between atoms: _376  and  _378
REMARK  150  A    between atoms: _378  and  _379
REMARK  151  A    between atoms: _378  and  _381
REMARK  152  A    between atoms: _381  and  _382
REMARK  153  A    between atoms: _387  and  _388
REMARK  154  A    between atoms: _390  and  _392
REMARK  155  A    between atoms: _392  and  _393
REMARK  156  A    between atoms: _392  and  _395
REMARK  157  A    between atoms: _395  and  _396
REMARK  158  A    between atoms: _399  and  _401
REMARK  159  A    between atoms: _401  and  _402
REMARK  160  A    between atoms: _401  and  _404
REMARK  161  A    between atoms: _404  and  _405
REMARK  162  A    between atoms: _408  and  _410
REMARK  163  A    between atoms: _410  and  _411
REMARK  164  A    between atoms: _410  and  _413
REMARK  165  A    between atoms: _413  and  _414
REMARK  166  A    between atoms: _416  and  _418
REMARK  167  A    between atoms: _418  and  _419
REMARK  168  A    between atoms: _418  and  _421
REMARK  169  A    between atoms: _421  and  _422
REMARK  170  A    between atoms: _427  and  _428
REMARK  171  A    between atoms: _430  and  _432
REMARK  172  A    between atoms: _432  and  _433
REMARK  173  A    between atoms: _432  and  _435
REMARK  174  A    between atoms: _435  and  _436
REMARK  175  A    between atoms: _439  and  _441
REMARK  176  A    between atoms: _441  and  _442
REMARK  177  A    between atoms: _441  and  _444
REMARK  178  A    between atoms: _444  and  _445
REMARK  179  A    between atoms: _448  and  _450
REMARK  180  A    between atoms: _450  and  _451
REMARK  181  A    between atoms: _450  and  _453
REMARK  182  A    between atoms: _453  and  _454
REMARK  183  A    between atoms: _457  and  _458
REMARK  184  A    between atoms: _463  and  _465
REMARK  185  A    between atoms: _465  and  _466
REMARK  186  A    between atoms: _469  and  _471
REMARK  187  A    between atoms: _471  and  _472
REMARK  188  A    between atoms: _471  and  _474
REMARK  189  A    between atoms: _474  and  _475
REMARK  190  A    between atoms: _480  and  _481
REMARK  191  A    between atoms: _483  and  _485
REMARK  192  A    between atoms: _485  and  _486
REMARK  193  A    between atoms: _485  and  _488
REMARK  194  A    between atoms: _488  and  _489
REMARK  195  A    between atoms: _494  and  _496
REMARK  196  A    between atoms: _496  and  _497
REMARK  197  A    between atoms: _496  and  _499
REMARK  198  A    between atoms: _499  and  _500
REMARK  199  A    between atoms: _503  and  _505
REMARK  200  A    between atoms: _505  and  _506
REMARK  201  A    between atoms: _505  and  _508
REMARK  202  A    between atoms: _508  and  _509
REMARK  203  A    between atoms: _509  and  _510
REMARK  204  A    between atoms: _515  and  _517
REMARK  205  A    between atoms: _517  and  _518
REMARK  206  A    between atoms: _517  and  _520
REMARK  207  A    between atoms: _520  and  _521
REMARK  208  A    between atoms: _521  and  _522
REMARK  209  A    between atoms: _525  and  _527
REMARK  210  A    between atoms: _527  and  _528
REMARK  211  A    between atoms: _527  and  _530
REMARK  212  A    between atoms: _530  and  _531
REMARK  213  A    between atoms: _535  and  _536
REMARK  214  A    between atoms: _541  and  _543
REMARK  215  A    between atoms: _543  and  _544
REMARK  216  A    between atoms: _543  and  _546
REMARK  217  A    between atoms: _546  and  _547
REMARK  218  A    between atoms: _550  and  _552
REMARK  219  A    between atoms: _552  and  _553
REMARK  220  A    between atoms: _555  and  _557
REMARK  221  A    between atoms: _557  and  _558
REMARK  222  A    between atoms: _557  and  _560
REMARK  223  A    between atoms: _560  and  _561
REMARK  224  A    between atoms: _566  and  _568
REMARK  225  A    between atoms: _568  and  _569
REMARK  226  A    between atoms: _568  and  _571
REMARK  227  A    between atoms: _571  and  _572
REMARK  228  A    between atoms: _582  and  _584
REMARK  229  A    between atoms: _584  and  _585
REMARK  230  A    between atoms: _584  and  _587
REMARK  231  A    between atoms: _587  and  _588
REMARK  232  A    between atoms: _588  and  _589
REMARK  233  A    between atoms: _591  and  _593
REMARK  234  A    between atoms: _593  and  _594
REMARK  235  A    between atoms: _593  and  _596
REMARK  236  A    between atoms: _596  and  _597
REMARK  237  A    between atoms: _602  and  _603
REMARK                            x       y       z     vdW  Elec       q    Type
REMARK                         _______ _______ _______ _____ _____    ______ ____
ROOT
ATOM      1  CA  VAL A   1      14.341  42.408 118.078  0.00  0.00    +0.133 C 
ENDROOT
BRANCH   1   2
ATOM      2  CB  VAL A   1      13.846  42.667 116.647  0.00  0.00    +0.023 C 
ATOM      3  CG2 VAL A   1      12.369  43.028 116.670  0.00  0.00    +0.002 C 
ATOM      4  CG1 VAL A   1      14.076  41.435 115.783  0.00  0.00    +0.002 C 
ENDBRANCH   1   2
BRANCH   1   5
ATOM      5  N   VAL A   1      14.381  43.645 118.851  0.00  0.00    -0.239 NA
ATOM      6  H   VAL A   1      14.704  44.519 118.390  0.00  0.00    +0.142 HD
ENDBRANCH   1   5
BRANCH   1   7
ATOM      7  C   VAL A   1      15.726  41.782 118.005  0.00  0.00    +0.224 C 
ATOM      8  O   VAL A   1      16.734  42.493 117.942  0.00  0.00    -0.287 OA
ENDBRANCH   1   7
TORSDOF 3
REMARK  Name = ../refined-set-2016/2qry/2qry_pocket.pdb
REMARK  237 active torsions:
REMARK  status: ('A' for Active; 'I' for Inactive)
REMARK    1  A    between atoms: _1  and  _3
REMARK    2  A    between atoms: _3  and  _4
REMARK    3  A    between atoms: _3  and  _6
REMARK    4  A    between atoms: _6  and  _7
REMARK    5  A    between atoms: _10  and  _12
REMARK    6  A    between atoms: _12  and  _13
REMARK    7  A    between atoms: _12  and  _15
REMARK    8  A    between atoms: _15  and  _16
REMARK    9  A    between atoms: _21  and  _22
REMARK   10  A    between atoms: _24  and  _26
REMARK   11  A    between atoms: _26  and  _27
REMARK   12  A    between atoms: _26  and  _29
REMARK   13  A    between atoms: _29  and  _30
REMARK   14  A    between atoms: _33  and  _35
REMARK   15  A    between atoms: _35  and  _36
REMARK   16  A    between atoms: _35  and  _38
REMARK   17  A    between atoms: _38  and  _39
REMARK   18  A    between atoms: _41  and  _43
REMARK   19  A    between atoms: _43  and  _44
REMARK   20  A    between atoms: _43  and  _46
REMARK   21  A    between atoms: _46  and  _47
REMARK   22  A    between atoms: _53  and  _55
REMARK   23  A    between atoms: _55  and  _56
REMARK   24  A    between atoms: _59  and  _61
REMARK   25  A    between atoms: _61  and  _62
REMARK   26  A    between atoms: _61  and  _64
REMARK   27  A    between atoms: _64  and  _65
REMARK   28  A    between atoms: _75  and  _77
REMARK   29  A    between atoms: _77  and  _78
REMARK   30  A    between atoms: _81  and  _82
REMARK   31  A    between atoms: _87  and  _89
REMARK   32  A    between atoms: _89  and  _90
REMARK   33  A    between atoms: _89  and  _92
REMARK   34  A    between atoms: _92  and  _93
REMARK   35  A    between atoms: _93  and  _94
REMARK   36  A    between atoms: _97  and  _99
REMARK   37  A    between atoms: _99  and  _100
REMARK   38  A    between atoms: _99  and  _102
REMARK   39  A    between atoms: _102  and  _103
REMARK   40  A    between atoms: _106  and  _108
REMARK   41  A    between atoms: _108  and  _109
REMARK   42  A    between atoms: _111  and  _113
REMARK   43  A    between atoms: _113  and  _114
REMARK   44  A    between atoms: _113  and  _116
REMARK   45  A    between atoms: _119  and  _121
REMARK   46  A    between atoms: _121  and  _122
REMARK   47  A    between atoms: _121  and  _124
REMARK   48  A    between atoms: _124  and  _125
REMARK   49  A    between atoms: _127  and  _129
REMARK   50  A    between atoms: _129  and  _130
REMARK   51  A    between atoms: _129  and  _132
REMARK   52  A    between atoms: _132  and  _133
REMARK   53  A    between atoms: _136  and  _138
REMARK   54  A    between atoms: _138  and  _139
REMARK   55  A    between atoms: _141  and  _143
REMARK   56  A    between atoms: _143  and  _144
REMARK   57  A    between atoms: _143  and  _146
REMARK   58  A    between atoms: _146  and  _147
REMARK   59  A    between atoms: _150  and  _152
REMARK   60  A    between atoms: _152  and  _153
REMARK   61  A    between atoms: _152  and  _155
REMARK   62  A    between atoms: _155  and  _156
REMARK   63  A    between atoms: _159  and  _161
REMARK   64  A    between atoms: _161  and  _162
REMARK   65  A    between atoms: _161  and  _164
REMARK   66  A    between atoms: _164  and  _165
REMARK   67  A    between atoms: _171  and  _173
REMARK   68  A    between atoms: _173  and  _174
REMARK   69  A    between atoms: _173  and  _176
REMARK   70  A    between atoms: _176  and  _177
REMARK   71  A    between atoms: _180  and  _182
REMARK   72  A    between atoms: _182  and  _183
REMARK   73  A    between atoms: _182  and  _185
REMARK   74  A    between atoms: _185  and  _186
REMARK   75  A    between atoms: _191  and  _192
REMARK   76  A    between atoms: _194  and  _196
REMARK   77  A    between atoms: _196  and  _197
REMARK   78  A    between atoms: _199  and  _201
REMARK   79  A    between atoms: _201  and  _202
REMARK   80  A    between atoms: _201  and  _204
REMARK   81  A    between atoms: _204  and  _205
REMARK   82  A    between atoms: _211  and  _213
REMARK   83  A    between atoms: _213  and  _214
REMARK   84  A    between atoms: _213  and  _216
REMARK   85  A    between atoms: _219  and  _221
REMARK   86  A    between atoms: _221  and  _222
REMARK   87  A    between atoms: _221  and  _224
REMARK   88  A    between atoms: _224  and  _225
REMARK   89  A    between atoms: _225  and  _226
REMARK   90  A    between atoms: _231  and  _233
REMARK   91  A    between atoms: _233  and  _234
REMARK   92  A    between atoms: _233  and  _236
REMARK   93  A    between atoms: _236  and  _237
REMARK   94  A    between atoms: _240  and  _242
REMARK   95  A    between atoms: _242  and  _243
REMARK   96  A    between atoms: _242  and  _245
REMARK   97  A    between atoms: _245  and  _246
REMARK   98  A    between atoms: _246  and  _247
REMARK   99  A    between atoms: _247  and  _248
REMARK  100  A    between atoms: _257  and  _259
REMARK  101  A    between atoms: _259  and  _260
REMARK  102  A    between atoms: _259  and  _262
REMARK  103  A    between atoms: _262  and  _263
REMARK  104  A    between atoms: _266  and  _268
REMARK  105  A    between atoms: _268  and  _269
REMARK  106  A    between atoms: _268  and  _271
REMARK  107  A    between atoms: _271  and  _272
REMARK  108  A    between atoms: _274  and  _276
REMARK  109  A    between atoms: _276  and  _277
REMARK  110  A    between atoms: _276  and  _279
REMARK  111  A    between atoms: _279  and  _280
REMARK  112  A    between atoms: _284  and  _285
REMARK  113  A    between atoms: _290  and  _292
REMARK  114  A    between atoms: _292  and  _293
REMARK  115  A    between atoms: _295  and  _297
REMARK  116  A    between atoms: _297  and  _298
REMARK  117  A    between atoms: _297  and  _300
REMARK  118  A    between atoms: _300  and  _301
REMARK  119  A    between atoms: _304  and  _306
REMARK  120  A    between atoms: _306  and  _307
REMARK  121  A    between atoms: _309  and  _311
REMARK  122  A    between atoms: _311  and  _312
REMARK  123  A    between atoms: _311  and  _314
REMARK  124  A    between atoms: _314  and  _315
REMARK  125  A    between atoms: _318  and  _320
REMARK  126  A    between atoms: _320  and  _321
REMARK  127  A    between atoms: _320  and  _323
REMARK  128  A    between atoms: _323  and  _324
REMARK  129  A    between atoms: _324  and  _325
REMARK  130  A    between atoms: _325  and  _326
REMARK  131  A    between atoms: _326  and  _327
REMARK  132  A    between atoms: _331  and  _333
REMARK  133  A    between atoms: _333  and  _334
REMARK  134  A    between atoms: _336  and  _338
REMARK  135  A    between atoms: _338  and  _339
REMARK  136  A    between atoms: _338  and  _341
REMARK  137  A    between atoms: _341  and  _342
REMARK  138  A    between atoms: _352  and  _354
REMARK  139  A    between atoms: _354  and  _355
REMARK  140  A    between atoms: _354  and  _357
REMARK  141  A    between atoms: _357  and  _358
REMARK  142  A    between atoms: _360  and  _362
REMARK  143  A    between atoms: _362  and  _363
REMARK  144  A    between atoms: _362  and  _365
REMARK  145  A    between atoms: _365  and  _366
REMARK  146  A    between atoms: _366  and  _367
REMARK  147  A    between atoms: _370  and  _372
REMARK  148  A    between atoms: _372  and  _373
REMARK  149  A    between atoms: _376  and  _378
REMARK  150  A    between atoms: _378  and  _379
REMARK  151  A    between atoms: _378  and  _381
REMARK  152  A    between atoms: _381  and  _382
REMARK  153  A    between atoms: _387  and  _388
REMARK  154  A    between atoms: _390  and  _392
REMARK  155  A    between atoms: _392  and  _393
REMARK  156  A    between atoms: _392  and  _395
REMARK  157  A    between atoms: _395  and  _396
REMARK  158  A    between atoms: _399  and  _401
REMARK  159  A    between atoms: _401  and  _402
REMARK  160  A    between atoms: _401  and  _404
REMARK  161  A    between atoms: _404  and  _405
REMARK  162  A    between atoms: _408  and  _410
REMARK  163  A    between atoms: _410  and  _411
REMARK  164  A    between atoms: _410  and  _413
REMARK  165  A    between atoms: _413  and  _414
REMARK  166  A    between atoms: _416  and  _418
REMARK  167  A    between atoms: _418  and  _419
REMARK  168  A    between atoms: _418  and  _421
REMARK  169  A    between atoms: _421  and  _422
REMARK  170  A    between atoms: _427  and  _428
REMARK  171  A    between atoms: _430  and  _432
REMARK  172  A    between atoms: _432  and  _433
REMARK  173  A    between atoms: _432  and  _435
REMARK  174  A    between atoms: _435  and  _436
REMARK  175  A    between atoms: _439  and  _441
REMARK  176  A    between atoms: _441  and  _442
REMARK  177  A    between atoms: _441  and  _444
REMARK  178  A    between atoms: _444  and  _445
REMARK  179  A    between atoms: _448  and  _450
REMARK  180  A    between atoms: _450  and  _451
REMARK  181  A    between atoms: _450  and  _453
REMARK  182  A    between atoms: _453  and  _454
REMARK  183  A    between atoms: _457  and  _458
REMARK  184  A    between atoms: _463  and  _465
REMARK  185  A    between atoms: _465  and  _466
REMARK  186  A    between atoms: _469  and  _471
REMARK  187  A    between atoms: _471  and  _472
REMARK  188  A    between atoms: _471  and  _474
REMARK  189  A    between atoms: _474  and  _475
REMARK  190  A    between atoms: _480  and  _481
REMARK  191  A    between atoms: _483  and  _485
REMARK  192  A    between atoms: _485  and  _486
REMARK  193  A    between atoms: _485  and  _488
REMARK  194  A    between atoms: _488  and  _489
REMARK  195  A    between atoms: _494  and  _496
REMARK  196  A    between atoms: _496  and  _497
REMARK  197  A    between atoms: _496  and  _499
REMARK  198  A    between atoms: _499  and  _500
REMARK  199  A    between atoms: _503  and  _505
REMARK  200  A    between atoms: _505  and  _506
REMARK  201  A    between atoms: _505  and  _508
REMARK  202  A    between atoms: _508  and  _509
REMARK  203  A    between atoms: _509  and  _510
REMARK  204  A    between atoms: _515  and  _517
REMARK  205  A    between atoms: _517  and  _518
REMARK  206  A    between atoms: _517  and  _520
REMARK  207  A    between atoms: _520  and  _521
REMARK  208  A    between atoms: _521  and  _522
REMARK  209  A    between atoms: _525  and  _527
REMARK  210  A    between atoms: _527  and  _528
REMARK  211  A    between atoms: _527  and  _530
REMARK  212  A    between atoms: _530  and  _531
REMARK  213  A    between atoms: _535  and  _536
REMARK  214  A    between atoms: _541  and  _543
REMARK  215  A    between atoms: _543  and  _544
REMARK  216  A    between atoms: _543  and  _546
REMARK  217  A    between atoms: _546  and  _547
REMARK  218  A    between atoms: _550  and  _552
REMARK  219  A    between atoms: _552  and  _553
REMARK  220  A    between atoms: _555  and  _557
REMARK  221  A    between atoms: _557  and  _558
REMARK  222  A    between atoms: _557  and  _560
REMARK  223  A    between atoms: _560  and  _561
REMARK  224  A    between atoms: _566  and  _568
REMARK  225  A    between atoms: _568  and  _569
REMARK  226  A    between atoms: _568  and  _571
REMARK  227  A    between atoms: _571  and  _572
REMARK  228  A    between atoms: _582  and  _584
REMARK  229  A    between atoms: _584  and  _585
REMARK  230  A    between atoms: _584  and  _587
REMARK  231  A    between atoms: _587  and  _588
REMARK  232  A    between atoms: _588  and  _589
REMARK  233  A    between atoms: _591  and  _593
REMARK  234  A    between atoms: _593  and  _594
REMARK  235  A    between atoms: _593  and  _596
REMARK  236  A    between atoms: _596  and  _597
REMARK  237  A    between atoms: _602  and  _603
REMARK                            x       y       z     vdW  Elec       q    Type
REMARK                         _______ _______ _______ _____ _____    ______ ____
ROOT
ATOM      1  C   GLN A   1      17.323  56.676 117.074  0.00  0.00    +0.238 C 
ATOM      2  O   GLN A   1      17.079  56.692 118.281  0.00  0.00    -0.274 OA
ATOM      3  N   ASP A   2      17.647  57.756 116.372  0.00  0.00    -0.298 N 
ATOM      4  H   ASP A   2      17.823  57.646 115.353  0.00  0.00    +0.150 HD
ENDROOT
BRANCH   1   5
ATOM      5  CA  GLN A   1      17.247  55.393 116.260  0.00  0.00    +0.145 C 
BRANCH   5   6
ATOM      6  N   GLN A   1      17.395  54.143 117.005  0.00  0.00    -0.238 NA
ATOM      7  H   GLN A   1      16.587  53.772 117.545  0.00  0.00    +0.142 HD
ENDBRANCH   5   6
BRANCH   5   8
ATOM      8  CB  GLN A   1      15.929  55.396 115.478  0.00  0.00    +0.036 C 
BRANCH   8   9
ATOM      9  CG  GLN A   1      15.661  54.137 114.667  0.00  0.00    +0.087 C 
BRANCH   9  10
ATOM     10  CD  GLN A   1      15.277  52.967 115.545  0.00  0.00    +0.219 C 
ATOM     11  OE1 GLN A   1      14.539  53.125 116.509  0.00  0.00    -0.275 OA
ATOM     12  NE2 GLN A   1      15.768  51.785 115.211  0.00  0.00    -0.329 N 
ATOM     13 HE21 GLN A   1      15.530  50.945 115.776  0.00  0.00    +0.145 HD
ATOM     14 HE22 GLN A   1      16.392  51.696 114.384  0.00  0.00    +0.145 HD
ENDBRANCH   9  10
ENDBRANCH   8   9
ENDBRANCH   5   8
ENDBRANCH   1   5
BRANCH   3  15
ATOM     15  CA  ASP A   2      17.769  59.084 116.952  0.00  0.00    +0.148 C 
BRANCH  15  16
ATOM     16  C   ASP A   2      16.383  59.605 117.325  0.00  0.00    +0.227 C 
ATOM     17  O   ASP A   2      15.509  59.726 116.471  0.00  0.00    -0.286 OA
ENDBRANCH  15  16
BRANCH  15  18
ATOM     18  CB  ASP A   2      18.410  60.022 115.929  0.00  0.00    +0.142 C 
BRANCH  18  19
ATOM     19  CG  ASP A   2      18.786  61.360 116.523  0.00  0.00    +0.367 C 
ATOM     20  OD2 ASP A   2      18.034  61.860 117.383  0.00  0.00    -0.246 OA
ATOM     21  OD1 ASP A   2      19.826  61.922 116.117  0.00  0.00    -0.246 OA
ENDBRANCH  18  19
ENDBRANCH  15  18
ENDBRANCH   3  15
TORSDOF 9
REMARK  Name = ../refined-set-2016/2qry/2qry_pocket.pdb
REMARK  237 active torsions:
REMARK  status: ('A' for Active; 'I' for Inactive)
REMARK    1  A    between atoms: _1  and  _3
REMARK    2  A    between atoms: _3  and  _4
REMARK    3  A    between atoms: _3  and  _6
REMARK    4  A    between atoms: _6  and  _7
REMARK    5  A    between atoms: _10  and  _12
REMARK    6  A    between atoms: _12  and  _13
REMARK    7  A    between atoms: _12  and  _15
REMARK    8  A    between atoms: _15  and  _16
REMARK    9  A    between atoms: _21  and  _22
REMARK   10  A    between atoms: _24  and  _26
REMARK   11  A    between atoms: _26  and  _27
REMARK   12  A    between atoms: _26  and  _29
REMARK   13  A    between atoms: _29  and  _30
REMARK   14  A    between atoms: _33  and  _35
REMARK   15  A    between atoms: _35  and  _36
REMARK   16  A    between atoms: _35  and  _38
REMARK   17  A    between atoms: _38  and  _39
REMARK   18  A    between atoms: _41  and  _43
REMARK   19  A    between atoms: _43  and  _44
REMARK   20  A    between atoms: _43  and  _46
REMARK   21  A    between atoms: _46  and  _47
REMARK   22  A    between atoms: _53  and  _55
REMARK   23  A    between atoms: _55  and  _56
REMARK   24  A    between atoms: _59  and  _61
REMARK   25  A    between atoms: _61  and  _62
REMARK   26  A    between atoms: _61  and  _64
REMARK   27  A    between atoms: _64  and  _65
REMARK   28  A    between atoms: _75  and  _77
REMARK   29  A    between atoms: _77  and  _78
REMARK   30  A    between atoms: _81  and  _82
REMARK   31  A    between atoms: _87  and  _89
REMARK   32  A    between atoms: _89  and  _90
REMARK   33  A    between atoms: _89  and  _92
REMARK   34  A    between atoms: _92  and  _93
REMARK   35  A    between atoms: _93  and  _94
REMARK   36  A    between atoms: _97  and  _99
REMARK   37  A    between atoms: _99  and  _100
REMARK   38  A    between atoms: _99  and  _102
REMARK   39  A    between atoms: _102  and  _103
REMARK   40  A    between atoms: _106  and  _108
REMARK   41  A    between atoms: _108  and  _109
REMARK   42  A    between atoms: _111  and  _113
REMARK   43  A    between atoms: _113  and  _114
REMARK   44  A    between atoms: _113  and  _116
REMARK   45  A    between atoms: _119  and  _121
REMARK   46  A    between atoms: _121  and  _122
REMARK   47  A    between atoms: _121  and  _124
REMARK   48  A    between atoms: _124  and  _125
REMARK   49  A    between atoms: _127  and  _129
REMARK   50  A    between atoms: _129  and  _130
REMARK   51  A    between atoms: _129  and  _132
REMARK   52  A    between atoms: _132  and  _133
REMARK   53  A    between atoms: _136  and  _138
REMARK   54  A    between atoms: _138  and  _139
REMARK   55  A    between atoms: _141  and  _143
REMARK   56  A    between atoms: _143  and  _144
REMARK   57  A    between atoms: _143  and  _146
REMARK   58  A    between atoms: _146  and  _147
REMARK   59  A    between atoms: _150  and  _152
REMARK   60  A    between atoms: _152  and  _153
REMARK   61  A    between atoms: _152  and  _155
REMARK   62  A    between atoms: _155  and  _156
REMARK   63  A    between atoms: _159  and  _161
REMARK   64  A    between atoms: _161  and  _162
REMARK   65  A    between atoms: _161  and  _164
REMARK   66  A    between atoms: _164  and  _165
REMARK   67  A    between atoms: _171  and  _173
REMARK   68  A    between atoms: _173  and  _174
REMARK   69  A    between atoms: _173  and  _176
REMARK   70  A    between atoms: _176  and  _177
REMARK   71  A    between atoms: _180  and  _182
REMARK   72  A    between atoms: _182  and  _183
REMARK   73  A    between atoms: _182  and  _185
REMARK   74  A    between atoms: _185  and  _186
REMARK   75  A    between atoms: _191  and  _192
REMARK   76  A    between atoms: _194  and  _196
REMARK   77  A    between atoms: _196  and  _197
REMARK   78  A    between atoms: _199  and  _201
REMARK   79  A    between atoms: _201  and  _202
REMARK   80  A    between atoms: _201  and  _204
REMARK   81  A    between atoms: _204  and  _205
REMARK   82  A    between atoms: _211  and  _213
REMARK   83  A    between atoms: _213  and  _214
REMARK   84  A    between atoms: _213  and  _216
REMARK   85  A    between atoms: _219  and  _221
REMARK   86  A    between atoms: _221  and  _222
REMARK   87  A    between atoms: _221  and  _224
REMARK   88  A    between atoms: _224  and  _225
REMARK   89  A    between atoms: _225  and  _226
REMARK   90  A    between atoms: _231  and  _233
REMARK   91  A    between atoms: _233  and  _234
REMARK   92  A    between atoms: _233  and  _236
REMARK   93  A    between atoms: _236  and  _237
REMARK   94  A    between atoms: _240  and  _242
REMARK   95  A    between atoms: _242  and  _243
REMARK   96  A    between atoms: _242  and  _245
REMARK   97  A    between atoms: _245  and  _246
REMARK   98  A    between atoms: _246  and  _247
REMARK   99  A    between atoms: _247  and  _248
REMARK  100  A    between atoms: _257  and  _259
REMARK  101  A    between atoms: _259  and  _260
REMARK  102  A    between atoms: _259  and  _262
REMARK  103  A    between atoms: _262  and  _263
REMARK  104  A    between atoms: _266  and  _268
REMARK  105  A    between atoms: _268  and  _269
REMARK  106  A    between atoms: _268  and  _271
REMARK  107  A    between atoms: _271  and  _272
REMARK  108  A    between atoms: _274  and  _276
REMARK  109  A    between atoms: _276  and  _277
REMARK  110  A    between atoms: _276  and  _279
REMARK  111  A    between atoms: _279  and  _280
REMARK  112  A    between atoms: _284  and  _285
REMARK  113  A    between atoms: _290  and  _292
REMARK  114  A    between atoms: _292  and  _293
REMARK  115  A    between atoms: _295  and  _297
REMARK  116  A    between atoms: _297  and  _298
REMARK  117  A    between atoms: _297  and  _300
REMARK  118  A    between atoms: _300  and  _301
REMARK  119  A    between atoms: _304  and  _306
REMARK  120  A    between atoms: _306  and  _307
REMARK  121  A    between atoms: _309  and  _311
REMARK  122  A    between atoms: _311  and  _312
REMARK  123  A    between atoms: _311  and  _314
REMARK  124  A    between atoms: _314  and  _315
REMARK  125  A    between atoms: _318  and  _320
REMARK  126  A    between atoms: _320  and  _321
REMARK  127  A    between atoms: _320  and  _323
REMARK  128  A    between atoms: _323  and  _324
REMARK  129  A    between atoms: _324  and  _325
REMARK  130  A    between atoms: _325  and  _326
REMARK  131  A    between atoms: _326  and  _327
REMARK  132  A    between atoms: _331  and  _333
REMARK  133  A    between atoms: _333  and  _334
REMARK  134  A    between atoms: _336  and  _338
REMARK  135  A    between atoms: _338  and  _339
REMARK  136  A    between atoms: _338  and  _341
REMARK  137  A    between atoms: _341  and  _342
REMARK  138  A    between atoms: _352  and  _354
REMARK  139  A    between atoms: _354  and  _355
REMARK  140  A    between atoms: _354  and  _357
REMARK  141  A    between atoms: _357  and  _358
REMARK  142  A    between atoms: _360  and  _362
REMARK  143  A    between atoms: _362  and  _363
REMARK  144  A    between atoms: _362  and  _365
REMARK  145  A    between atoms: _365  and  _366
REMARK  146  A    between atoms: _366  and  _367
REMARK  147  A    between atoms: _370  and  _372
REMARK  148  A    between atoms: _372  and  _373
REMARK  149  A    between atoms: _376  and  _378
REMARK  150  A    between atoms: _378  and  _379
REMARK  151  A    between atoms: _378  and  _381
REMARK  152  A    between atoms: _381  and  _382
REMARK  153  A    between atoms: _387  and  _388
REMARK  154  A    between atoms: _390  and  _392
REMARK  155  A    between atoms: _392  and  _393
REMARK  156  A    between atoms: _392  and  _395
REMARK  157  A    between atoms: _395  and  _396
REMARK  158  A    between atoms: _399  and  _401
REMARK  159  A    between atoms: _401  and  _402
REMARK  160  A    between atoms: _401  and  _404
REMARK  161  A    between atoms: _404  and  _405
REMARK  162  A    between atoms: _408  and  _410
REMARK  163  A    between atoms: _410  and  _411
REMARK  164  A    between atoms: _410  and  _413
REMARK  165  A    between atoms: _413  and  _414
REMARK  166  A    between atoms: _416  and  _418
REMARK  167  A    between atoms: _418  and  _419
REMARK  168  A    between atoms: _418  and  _421
REMARK  169  A    between atoms: _421  and  _422
REMARK  170  A    between atoms: _427  and  _428
REMARK  171  A    between atoms: _430  and  _432
REMARK  172  A    between atoms: _432  and  _433
REMARK  173  A    between atoms: _432  and  _435
REMARK  174  A    between atoms: _435  and  _436
REMARK  175  A    between atoms: _439  and  _441
REMARK  176  A    between atoms: _441  and  _442
REMARK  177  A    between atoms: _441  and  _444
REMARK  178  A    between atoms: _444  and  _445
REMARK  179  A    between atoms: _448  and  _450
REMARK  180  A    between atoms: _450  and  _451
REMARK  181  A    between atoms: _450  and  _453
REMARK  182  A    between atoms: _453  and  _454
REMARK  183  A    between atoms: _457  and  _458
REMARK  184  A    between atoms: _463  and  _465
REMARK  185  A    between atoms: _465  and  _466
REMARK  186  A    between atoms: _469  and  _471
REMARK  187  A    between atoms: _471  and  _472
REMARK  188  A    between atoms: _471  and  _474
REMARK  189  A    between atoms: _474  and  _475
REMARK  190  A    between atoms: _480  and  _481
REMARK  191  A    between atoms: _483  and  _485
REMARK  192  A    between atoms: _485  and  _486
REMARK  193  A    between atoms: _485  and  _488
REMARK  194  A    between atoms: _488  and  _489
REMARK  195  A    between atoms: _494  and  _496
REMARK  196  A    between atoms: _496  and  _497
REMARK  197  A    between atoms: _496  and  _499
REMARK  198  A    between atoms: _499  and  _500
REMARK  199  A    between atoms: _503  and  _505
REMARK  200  A    between atoms: _505  and  _506
REMARK  201  A    between atoms: _505  and  _508
REMARK  202  A    between atoms: _508  and  _509
REMARK  203  A    between atoms: _509  and  _510
REMARK  204  A    between atoms: _515  and  _517
REMARK  205  A    between atoms: _517  and  _518
REMARK  206  A    between atoms: _517  and  _520
REMARK  207  A    between atoms: _520  and  _521
REMARK  208  A    between atoms: _521  and  _522
REMARK  209  A    between atoms: _525  and  _527
REMARK  210  A    between atoms: _527  and  _528
REMARK  211  A    between atoms: _527  and  _530
REMARK  212  A    between atoms: _530  and  _531
REMARK  213  A    between atoms: _535  and  _536
REMARK  214  A    between atoms: _541  and  _543
REMARK  215  A    between atoms: _543  and  _544
REMARK  216  A    between atoms: _543  and  _546
REMARK  217  A    between atoms: _546  and  _547
REMARK  218  A    between atoms: _550  and  _552
REMARK  219  A    between atoms: _552  and  _553
REMARK  220  A    between atoms: _555  and  _557
REMARK  221  A    between atoms: _557  and  _558
REMARK  222  A    between atoms: _557  and  _560
REMARK  223  A    between atoms: _560  and  _561
REMARK  224  A    between atoms: _566  and  _568
REMARK  225  A    between atoms: _568  and  _569
REMARK  226  A    between atoms: _568  and  _571
REMARK  227  A    between atoms: _571  and  _572
REMARK  228  A    between atoms: _582  and  _584
REMARK  229  A    between atoms: _584  and  _585
REMARK  230  A    between atoms: _584  and  _587
REMARK  231  A    between atoms: _587  and  _588
REMARK  232  A    between atoms: _588  and  _589
REMARK  233  A    between atoms: _591  and  _593
REMARK  234  A    between atoms: _593  and  _594
REMARK  235  A    between atoms: _593  and  _596
REMARK  236  A    between atoms: _596  and  _597
REMARK  237  A    between atoms: _602  and  _603
REMARK                            x       y       z     vdW  Elec       q    Type
REMARK                         _______ _______ _______ _____ _____    ______ ____
ROOT
ATOM      1  C   SER A   3      11.588  58.571 115.580  0.00  0.00    +0.243 C 
ATOM      2  O   SER A   3      11.939  58.664 116.758  0.00  0.00    -0.273 OA
ATOM      3  N   THR A   4      10.350  58.230 115.237  0.00  0.00    -0.295 N 
ATOM      4  H   THR A   4      10.088  58.160 114.233  0.00  0.00    +0.150 HD
ENDROOT
BRANCH   3   5
ATOM      5  CA  THR A   4       9.360  57.955 116.271  0.00  0.00    +0.176 C 
BRANCH   5   6
ATOM      6  C   THR A   4       9.782  56.760 117.130  0.00  0.00    +0.246 C 
ATOM      7  O   THR A   4       9.625  56.792 118.351  0.00  0.00    -0.273 OA
ATOM      8  N   PRO A   5      10.320  55.688 116.508  0.00  0.00    -0.272 N 
ATOM      9  CA  PRO A   5      10.755  54.530 117.307  0.00  0.00    +0.152 C 
ATOM     10  CB  PRO A   5      11.258  53.551 116.258  0.00  0.00    +0.031 C 
ATOM     11  CG  PRO A   5      10.407  53.861 115.071  0.00  0.00    +0.024 C 
ATOM     12  CD  PRO A   5      10.361  55.371 115.068  0.00  0.00    +0.094 C 
BRANCH   9  13
ATOM     13  C   PRO A   5      11.891  54.991 118.224  0.00  0.00    +0.241 C 
ATOM     14  O   PRO A   5      12.073  54.477 119.324  0.00  0.00    -0.273 OA
ATOM     15  N   GLY A   6      12.660  55.963 117.742  0.00  0.00    -0.295 N 
ATOM     16  H   GLY A   6      12.470  56.348 116.795  0.00  0.00    +0.150 HD
BRANCH  15  17
ATOM     17  CA  GLY A   6      13.761  56.492 118.523  0.00  0.00    +0.176 C 
BRANCH  17  18
ATOM     18  C   GLY A   6      13.206  57.268 119.702  0.00  0.00    +0.243 C 
ATOM     19  O   GLY A   6      13.676  57.118 120.830  0.00  0.00    -0.273 OA
ATOM     20  N   LEU A   7      12.193  58.093 119.426  0.00  0.00    -0.297 N 
ATOM     21  H   LEU A   7      11.861  58.168 118.443  0.00  0.00    +0.150 HD
BRANCH  20  22
ATOM     22  CA  LEU A   7      11.538  58.890 120.450  0.00  0.00    +0.149 C 
BRANCH  22  23
ATOM     23  C   LEU A   7      10.904  57.898 121.424  0.00  0.00    +0.241 C 
ATOM     24  O   LEU A   7      10.904  58.115 122.641  0.00  0.00    -0.273 OA
ATOM     25  N   GLY A   8      10.366  56.811 120.869  0.00  0.00    -0.296 N 
ATOM     26  H   GLY A   8      10.388  56.703 119.835  0.00  0.00    +0.150 HD
BRANCH  25  27
ATOM     27  CA  GLY A   8       9.751  55.776 121.680  0.00  0.00    +0.163 C 
BRANCH  27  28
ATOM     28  C   GLY A   8      10.716  55.209 122.709  0.00  0.00    +0.229 C 
ATOM     29  O   GLY A   8      10.380  55.115 123.892  0.00  0.00    -0.286 OA
ENDBRANCH  27  28
ENDBRANCH  25  27
ENDBRANCH  22  23
BRANCH  22  30
ATOM     30  CB  LEU A   7      10.446  59.761 119.833  0.00  0.00    +0.029 C 
BRANCH  30  31
ATOM     31  CG  LEU A   7      10.168  61.141 120.437  0.00  0.00    +0.002 C 
ATOM     32  CD2 LEU A   7      10.457  61.180 121.938  0.00  0.00    +0.000 C 
ATOM     33  CD1 LEU A   7       8.704  61.489 120.146  0.00  0.00    +0.000 C 
ENDBRANCH  30  31
ENDBRANCH  22  30
ENDBRANCH  20  22
ENDBRANCH  17  18
ENDBRANCH  15  17
ENDBRANCH   9  13
ENDBRANCH   5   6
BRANCH   5  34
ATOM     34  CB  THR A   4       7.933  57.745 115.681  0.00  0.00    +0.137 C 
ATOM     35  CG2 THR A   4       7.328  59.088 115.294  0.00  0.00    +0.034 C 
BRANCH  34  36
ATOM     36  OG1 THR A   4       7.988  56.894 114.533  0.00  0.00    -0.382 OA
ATOM     37  HG1 THR A   4       7.075  56.771 114.171  0.00  0.00    +0.210 HD
ENDBRANCH  34  36
ENDBRANCH   5  34
ENDBRANCH   3   5
BRANCH   1  38
ATOM     38  CA  SER A   3      12.588  58.815 114.439  0.00  0.00    +0.178 C 
BRANCH  38  40
ATOM     39  C   THR A   2      13.269  61.083 113.756  0.00  0.00    +0.243 C 
ATOM     40  N   SER A   3      13.428  60.016 114.539  0.00  0.00    -0.295 N 
ATOM     41  H   SER A   3      14.182  60.035 115.255  0.00  0.00    +0.150 HD
ATOM     42  O   THR A   2      12.364  61.180 112.921  0.00  0.00    -0.273 OA
BRANCH  39  43
ATOM     43  CA  THR A   2      14.271  62.230 113.940  0.00  0.00    +0.176 C 
BRANCH  43  46
ATOM     44  C   ARG A   1      14.572  63.632 115.886  0.00  0.00    +0.238 C 
ATOM     45  O   ARG A   1      13.974  64.560 115.343  0.00  0.00    -0.274 OA
ATOM     46  N   THR A   2      14.746  62.456 115.296  0.00  0.00    -0.295 N 
ATOM     47  H   THR A   2      15.227  61.689 115.808  0.00  0.00    +0.150 HD
BRANCH  44  48
ATOM     48  CA  ARG A   1      15.141  63.784 117.301  0.00  0.00    +0.145 C 
BRANCH  48  49
ATOM     49  N   ARG A   1      15.414  62.490 117.908  0.00  0.00    -0.238 NA
ATOM     50  H   ARG A   1      16.385  62.119 117.897  0.00  0.00    +0.142 HD
ENDBRANCH  48  49
BRANCH  48  51
ATOM     51  CB  ARG A   1      16.433  64.613 117.251  0.00  0.00    +0.030 C 
BRANCH  51  52
ATOM     52  CG  ARG A   1      17.024  64.926 118.622  0.00  0.00    +0.045 C 
BRANCH  52  53
ATOM     53  CD  ARG A   1      18.461  65.452 118.530  0.00  0.00    +0.174 C 
BRANCH  53  54
ATOM     54  NE  ARG A   1      19.371  64.447 117.981  0.00  0.00    -0.265 N 
ATOM     55  CZ  ARG A   1      20.698  64.542 117.993  0.00  0.00    +0.342 C 
ATOM     56  NH2 ARG A   1      21.288  65.607 118.533  0.00  0.00    -0.292 N 
ATOM     57 HH21 ARG A   1      20.711  66.367 118.947  0.00  0.00    +0.255 HD
ATOM     58 HH22 ARG A   1      22.326  65.679 118.541  0.00  0.00    +0.255 HD
ATOM     59  NH1 ARG A   1      21.437  63.574 117.462  0.00  0.00    -0.292 N 
ATOM     60 HH11 ARG A   1      22.474  63.647 117.471  0.00  0.00    +0.255 HD
ATOM     61 HH12 ARG A   1      20.978  62.743 117.037  0.00  0.00    +0.255 HD
ATOM     62  HE  ARG A   1      18.951  63.598 117.551  0.00  0.00    +0.259 HD
ENDBRANCH  53  54
ENDBRANCH  52  53
ENDBRANCH  51  52
ENDBRANCH  48  51
ENDBRANCH  44  48
ENDBRANCH  43  46
BRANCH  43  63
ATOM     63  CB  THR A   2      15.463  61.964 112.993  0.00  0.00    +0.137 C 
ATOM     64  CG2 THR A   2      16.430  63.137 113.008  0.00  0.00    +0.034 C 
BRANCH  63  65
ATOM     65  OG1 THR A   2      16.157  60.782 113.416  0.00  0.00    -0.382 OA
ATOM     66  HG1 THR A   2      15.537  60.010 113.391  0.00  0.00    +0.210 HD
ENDBRANCH  63  65
ENDBRANCH  43  63
ENDBRANCH  39  43
ENDBRANCH  38  40
BRANCH  38  67
ATOM     67  CB  SER A   3      13.510  57.585 114.303  0.00  0.00    +0.166 C 
BRANCH  67  68
ATOM     68  OG  SER A   3      12.837  56.352 114.536  0.00  0.00    -0.380 OA
ATOM     69  H   SER A   3      12.102  56.250 113.881  0.00  0.00    +0.211 HD
ENDBRANCH  67  68
ENDBRANCH  38  67
ENDBRANCH   1  38
TORSDOF 27
REMARK  Name = ../refined-set-2016/2qry/2qry_pocket.pdb
REMARK  237 active torsions:
REMARK  status: ('A' for Active; 'I' for Inactive)
REMARK    1  A    between atoms: _1  and  _3
REMARK    2  A    between atoms: _3  and  _4
REMARK    3  A    between atoms: _3  and  _6
REMARK    4  A    between atoms: _6  and  _7
REMARK    5  A    between atoms: _10  and  _12
REMARK    6  A    between atoms: _12  and  _13
REMARK    7  A    between atoms: _12  and  _15
REMARK    8  A    between atoms: _15  and  _16
REMARK    9  A    between atoms: _21  and  _22
REMARK   10  A    between atoms: _24  and  _26
REMARK   11  A    between atoms: _26  and  _27
REMARK   12  A    between atoms: _26  and  _29
REMARK   13  A    between atoms: _29  and  _30
REMARK   14  A    between atoms: _33  and  _35
REMARK   15  A    between atoms: _35  and  _36
REMARK   16  A    between atoms: _35  and  _38
REMARK   17  A    between atoms: _38  and  _39
REMARK   18  A    between atoms: _41  and  _43
REMARK   19  A    between atoms: _43  and  _44
REMARK   20  A    between atoms: _43  and  _46
REMARK   21  A    between atoms: _46  and  _47
REMARK   22  A    between atoms: _53  and  _55
REMARK   23  A    between atoms: _55  and  _56
REMARK   24  A    between atoms: _59  and  _61
REMARK   25  A    between atoms: _61  and  _62
REMARK   26  A    between atoms: _61  and  _64
REMARK   27  A    between atoms: _64  and  _65
REMARK   28  A    between atoms: _75  and  _77
REMARK   29  A    between atoms: _77  and  _78
REMARK   30  A    between atoms: _81  and  _82
REMARK   31  A    between atoms: _87  and  _89
REMARK   32  A    between atoms: _89  and  _90
REMARK   33  A    between atoms: _89  and  _92
REMARK   34  A    between atoms: _92  and  _93
REMARK   35  A    between atoms: _93  and  _94
REMARK   36  A    between atoms: _97  and  _99
REMARK   37  A    between atoms: _99  and  _100
REMARK   38  A    between atoms: _99  and  _102
REMARK   39  A    between atoms: _102  and  _103
REMARK   40  A    between atoms: _106  and  _108
REMARK   41  A    between atoms: _108  and  _109
REMARK   42  A    between atoms: _111  and  _113
REMARK   43  A    between atoms: _113  and  _114
REMARK   44  A    between atoms: _113  and  _116
REMARK   45  A    between atoms: _119  and  _121
REMARK   46  A    between atoms: _121  and  _122
REMARK   47  A    between atoms: _121  and  _124
REMARK   48  A    between atoms: _124  and  _125
REMARK   49  A    between atoms: _127  and  _129
REMARK   50  A    between atoms: _129  and  _130
REMARK   51  A    between atoms: _129  and  _132
REMARK   52  A    between atoms: _132  and  _133
REMARK   53  A    between atoms: _136  and  _138
REMARK   54  A    between atoms: _138  and  _139
REMARK   55  A    between atoms: _141  and  _143
REMARK   56  A    between atoms: _143  and  _144
REMARK   57  A    between atoms: _143  and  _146
REMARK   58  A    between atoms: _146  and  _147
REMARK   59  A    between atoms: _150  and  _152
REMARK   60  A    between atoms: _152  and  _153
REMARK   61  A    between atoms: _152  and  _155
REMARK   62  A    between atoms: _155  and  _156
REMARK   63  A    between atoms: _159  and  _161
REMARK   64  A    between atoms: _161  and  _162
REMARK   65  A    between atoms: _161  and  _164
REMARK   66  A    between atoms: _164  and  _165
REMARK   67  A    between atoms: _171  and  _173
REMARK   68  A    between atoms: _173  and  _174
REMARK   69  A    between atoms: _173  and  _176
REMARK   70  A    between atoms: _176  and  _177
REMARK   71  A    between atoms: _180  and  _182
REMARK   72  A    between atoms: _182  and  _183
REMARK   73  A    between atoms: _182  and  _185
REMARK   74  A    between atoms: _185  and  _186
REMARK   75  A    between atoms: _191  and  _192
REMARK   76  A    between atoms: _194  and  _196
REMARK   77  A    between atoms: _196  and  _197
REMARK   78  A    between atoms: _199  and  _201
REMARK   79  A    between atoms: _201  and  _202
REMARK   80  A    between atoms: _201  and  _204
REMARK   81  A    between atoms: _204  and  _205
REMARK   82  A    between atoms: _211  and  _213
REMARK   83  A    between atoms: _213  and  _214
REMARK   84  A    between atoms: _213  and  _216
REMARK   85  A    between atoms: _219  and  _221
REMARK   86  A    between atoms: _221  and  _222
REMARK   87  A    between atoms: _221  and  _224
REMARK   88  A    between atoms: _224  and  _225
REMARK   89  A    between atoms: _225  and  _226
REMARK   90  A    between atoms: _231  and  _233
REMARK   91  A    between atoms: _233  and  _234
REMARK   92  A    between atoms: _233  and  _236
REMARK   93  A    between atoms: _236  and  _237
REMARK   94  A    between atoms: _240  and  _242
REMARK   95  A    between atoms: _242  and  _243
REMARK   96  A    between atoms: _242  and  _245
REMARK   97  A    between atoms: _245  and  _246
REMARK   98  A    between atoms: _246  and  _247
REMARK   99  A    between atoms: _247  and  _248
REMARK  100  A    between atoms: _257  and  _259
REMARK  101  A    between atoms: _259  and  _260
REMARK  102  A    between atoms: _259  and  _262
REMARK  103  A    between atoms: _262  and  _263
REMARK  104  A    between atoms: _266  and  _268
REMARK  105  A    between atoms: _268  and  _269
REMARK  106  A    between atoms: _268  and  _271
REMARK  107  A    between atoms: _271  and  _272
REMARK  108  A    between atoms: _274  and  _276
REMARK  109  A    between atoms: _276  and  _277
REMARK  110  A    between atoms: _276  and  _279
REMARK  111  A    between atoms: _279  and  _280
REMARK  112  A    between atoms: _284  and  _285
REMARK  113  A    between atoms: _290  and  _292
REMARK  114  A    between atoms: _292  and  _293
REMARK  115  A    between atoms: _295  and  _297
REMARK  116  A    between atoms: _297  and  _298
REMARK  117  A    between atoms: _297  and  _300
REMARK  118  A    between atoms: _300  and  _301
REMARK  119  A    between atoms: _304  and  _306
REMARK  120  A    between atoms: _306  and  _307
REMARK  121  A    between atoms: _309  and  _311
REMARK  122  A    between atoms: _311  and  _312
REMARK  123  A    between atoms: _311  and  _314
REMARK  124  A    between atoms: _314  and  _315
REMARK  125  A    between atoms: _318  and  _320
REMARK  126  A    between atoms: _320  and  _321
REMARK  127  A    between atoms: _320  and  _323
REMARK  128  A    between atoms: _323  and  _324
REMARK  129  A    between atoms: _324  and  _325
REMARK  130  A    between atoms: _325  and  _326
REMARK  131  A    between atoms: _326  and  _327
REMARK  132  A    between atoms: _331  and  _333
REMARK  133  A    between atoms: _333  and  _334
REMARK  134  A    between atoms: _336  and  _338
REMARK  135  A    between atoms: _338  and  _339
REMARK  136  A    between atoms: _338  and  _341
REMARK  137  A    between atoms: _341  and  _342
REMARK  138  A    between atoms: _352  and  _354
REMARK  139  A    between atoms: _354  and  _355
REMARK  140  A    between atoms: _354  and  _357
REMARK  141  A    between atoms: _357  and  _358
REMARK  142  A    between atoms: _360  and  _362
REMARK  143  A    between atoms: _362  and  _363
REMARK  144  A    between atoms: _362  and  _365
REMARK  145  A    between atoms: _365  and  _366
REMARK  146  A    between atoms: _366  and  _367
REMARK  147  A    between atoms: _370  and  _372
REMARK  148  A    between atoms: _372  and  _373
REMARK  149  A    between atoms: _376  and  _378
REMARK  150  A    between atoms: _378  and  _379
REMARK  151  A    between atoms: _378  and  _381
REMARK  152  A    between atoms: _381  and  _382
REMARK  153  A    between atoms: _387  and  _388
REMARK  154  A    between atoms: _390  and  _392
REMARK  155  A    between atoms: _392  and  _393
REMARK  156  A    between atoms: _392  and  _395
REMARK  157  A    between atoms: _395  and  _396
REMARK  158  A    between atoms: _399  and  _401
REMARK  159  A    between atoms: _401  and  _402
REMARK  160  A    between atoms: _401  and  _404
REMARK  161  A    between atoms: _404  and  _405
REMARK  162  A    between atoms: _408  and  _410
REMARK  163  A    between atoms: _410  and  _411
REMARK  164  A    between atoms: _410  and  _413
REMARK  165  A    between atoms: _413  and  _414
REMARK  166  A    between atoms: _416  and  _418
REMARK  167  A    between atoms: _418  and  _419
REMARK  168  A    between atoms: _418  and  _421
REMARK  169  A    between atoms: _421  and  _422
REMARK  170  A    between atoms: _427  and  _428
REMARK  171  A    between atoms: _430  and  _432
REMARK  172  A    between atoms: _432  and  _433
REMARK  173  A    between atoms: _432  and  _435
REMARK  174  A    between atoms: _435  and  _436
REMARK  175  A    between atoms: _439  and  _441
REMARK  176  A    between atoms: _441  and  _442
REMARK  177  A    between atoms: _441  and  _444
REMARK  178  A    between atoms: _444  and  _445
REMARK  179  A    between atoms: _448  and  _450
REMARK  180  A    between atoms: _450  and  _451
REMARK  181  A    between atoms: _450  and  _453
REMARK  182  A    between atoms: _453  and  _454
REMARK  183  A    between atoms: _457  and  _458
REMARK  184  A    between atoms: _463  and  _465
REMARK  185  A    between atoms: _465  and  _466
REMARK  186  A    between atoms: _469  and  _471
REMARK  187  A    between atoms: _471  and  _472
REMARK  188  A    between atoms: _471  and  _474
REMARK  189  A    between atoms: _474  and  _475
REMARK  190  A    between atoms: _480  and  _481
REMARK  191  A    between atoms: _483  and  _485
REMARK  192  A    between atoms: _485  and  _486
REMARK  193  A    between atoms: _485  and  _488
REMARK  194  A    between atoms: _488  and  _489
REMARK  195  A    between atoms: _494  and  _496
REMARK  196  A    between atoms: _496  and  _497
REMARK  197  A    between atoms: _496  and  _499
REMARK  198  A    between atoms: _499  and  _500
REMARK  199  A    between atoms: _503  and  _505
REMARK  200  A    between atoms: _505  and  _506
REMARK  201  A    between atoms: _505  and  _508
REMARK  202  A    between atoms: _508  and  _509
REMARK  203  A    between atoms: _509  and  _510
REMARK  204  A    between atoms: _515  and  _517
REMARK  205  A    between atoms: _517  and  _518
REMARK  206  A    between atoms: _517  and  _520
REMARK  207  A    between atoms: _520  and  _521
REMARK  208  A    between atoms: _521  and  _522
REMARK  209  A    between atoms: _525  and  _527
REMARK  210  A    between atoms: _527  and  _528
REMARK  211  A    between atoms: _527  and  _530
REMARK  212  A    between atoms: _530  and  _531
REMARK  213  A    between atoms: _535  and  _536
REMARK  214  A    between atoms: _541  and  _543
REMARK  215  A    between atoms: _543  and  _544
REMARK  216  A    between atoms: _543  and  _546
REMARK  217  A    between atoms: _546  and  _547
REMARK  218  A    between atoms: _550  and  _552
REMARK  219  A    between atoms: _552  and  _553
REMARK  220  A    between atoms: _555  and  _557
REMARK  221  A    between atoms: _557  and  _558
REMARK  222  A    between atoms: _557  and  _560
REMARK  223  A    between atoms: _560  and  _561
REMARK  224  A    between atoms: _566  and  _568
REMARK  225  A    between atoms: _568  and  _569
REMARK  226  A    between atoms: _568  and  _571
REMARK  227  A    between atoms: _571  and  _572
REMARK  228  A    between atoms: _582  and  _584
REMARK  229  A    between atoms: _584  and  _585
REMARK  230  A    between atoms: _584  and  _587
REMARK  231  A    between atoms: _587  and  _588
REMARK  232  A    between atoms: _588  and  _589
REMARK  233  A    between atoms: _591  and  _593
REMARK  234  A    between atoms: _593  and  _594
REMARK  235  A    between atoms: _593  and  _596
REMARK  236  A    between atoms: _596  and  _597
REMARK  237  A    between atoms: _602  and  _603
REMARK                            x       y       z     vdW  Elec       q    Type
REMARK                         _______ _______ _______ _____ _____    ______ ____
ROOT
ATOM      1  CA  TRP A   4      14.391  52.791 111.427  0.00  0.00    +0.153 C 
ENDROOT
BRANCH   1   3
ATOM      2  C   GLY A   3      15.702  54.810 110.981  0.00  0.00    +0.243 C 
ATOM      3  N   TRP A   4      14.530  54.211 111.145  0.00  0.00    -0.297 N 
ATOM      4  H   TRP A   4      13.667  54.786 111.068  0.00  0.00    +0.150 HD
ATOM      5  O   GLY A   3      16.780  54.223 111.038  0.00  0.00    -0.273 OA
BRANCH   2   6
ATOM      6  CA  GLY A   3      15.625  56.295 110.704  0.00  0.00    +0.176 C 
BRANCH   6   9
ATOM      7  C   LYS A   2      16.863  58.086 111.727  0.00  0.00    +0.241 C 
ATOM      8  O   LYS A   2      15.850  58.544 112.257  0.00  0.00    -0.273 OA
ATOM      9  N   GLY A   3      16.858  57.003 110.958  0.00  0.00    -0.295 N 
ATOM     10  H   GLY A   3      17.746  56.663 110.537  0.00  0.00    +0.150 HD
BRANCH   7  11
ATOM     11  CA  LYS A   2      18.217  58.759 111.912  0.00  0.00    +0.149 C 
BRANCH  11  14
ATOM     12  C   THR A   1      19.515  56.979 112.955  0.00  0.00    +0.241 C 
ATOM     13  O   THR A   1      18.829  57.006 113.980  0.00  0.00    -0.274 OA
ATOM     14  N   LYS A   2      19.289  57.775 111.914  0.00  0.00    -0.297 N 
ATOM     15  H   LYS A   2      19.898  57.692 111.075  0.00  0.00    +0.150 HD
BRANCH  12  16
ATOM     16  CA  THR A   1      20.682  55.989 112.811  0.00  0.00    +0.172 C 
BRANCH  16  17
ATOM     17  CB  THR A   1      20.231  54.860 111.887  0.00  0.00    +0.135 C 
ATOM     18  CG2 THR A   1      21.258  53.736 111.873  0.00  0.00    +0.034 C 
BRANCH  17  19
ATOM     19  OG1 THR A   1      18.989  54.338 112.367  0.00  0.00    -0.383 OA
ATOM     20  HG1 THR A   1      18.689  53.605 111.773  0.00  0.00    +0.210 HD
ENDBRANCH  17  19
ENDBRANCH  16  17
BRANCH  16  21
ATOM     21  N   THR A   1      21.089  55.460 114.104  0.00  0.00    -0.236 NA
ATOM     22  H   THR A   1      20.508  54.725 114.556  0.00  0.00    +0.142 HD
ENDBRANCH  16  21
ENDBRANCH  12  16
ENDBRANCH  11  14
BRANCH  11  23
ATOM     23  CB  LYS A   2      18.429  59.772 110.780  0.00  0.00    +0.029 C 
BRANCH  23  24
ATOM     24  CG  LYS A   2      19.481  60.824 111.060  0.00  0.00    +0.000 C 
BRANCH  24  25
ATOM     25  CD  LYS A   2      19.572  61.807 109.902  0.00  0.00    -0.024 C 
BRANCH  25  26
ATOM     26  CE  LYS A   2      20.257  63.081 110.328  0.00  0.00    -0.086 C 
BRANCH  26  27
ATOM     27  NZ  LYS A   2      21.529  62.775 111.020  0.00  0.00    +0.380 N 
ATOM     28  HZ1 LYS A   2      21.334  62.196 111.862  0.00  0.00    -0.089 HD
ATOM     29  HZ2 LYS A   2      21.988  63.663 111.307  0.00  0.00    -0.089 HD
ATOM     30  HZ3 LYS A   2      22.155  62.252 110.376  0.00  0.00    -0.089 HD
ENDBRANCH  26  27
ENDBRANCH  25  26
ENDBRANCH  24  25
ENDBRANCH  23  24
ENDBRANCH  11  23
ENDBRANCH   7  11
ENDBRANCH   6   9
ENDBRANCH   2   6
ENDBRANCH   1   3
BRANCH   1  31
ATOM     31  C   TRP A   4      14.946  51.899 110.313  0.00  0.00    +0.241 C 
ATOM     32  O   TRP A   4      15.666  50.946 110.576  0.00  0.00    -0.273 OA
ATOM     33  N   SER A   5      14.608  52.208 109.069  0.00  0.00    -0.295 N 
ATOM     34  H   SER A   5      14.005  53.037 108.893  0.00  0.00    +0.150 HD
BRANCH  33  35
ATOM     35  CA  SER A   5      15.069  51.404 107.945  0.00  0.00    +0.178 C 
BRANCH  35  36
ATOM     36  C   SER A   5      16.547  51.040 107.989  0.00  0.00    +0.243 C 
ATOM     37  N   GLU A   6      17.415  52.041 108.119  0.00  0.00    -0.297 N 
ATOM     38  H   GLU A   6      17.067  53.018 108.192  0.00  0.00    +0.150 HD
ATOM     39  O   SER A   5      16.902  49.864 107.892  0.00  0.00    -0.273 OA
BRANCH  37  40
ATOM     40  CA  GLU A   6      18.851  51.779 108.160  0.00  0.00    +0.149 C 
BRANCH  40  41
ATOM     41  C   GLU A   6      19.222  50.929 109.368  0.00  0.00    +0.241 C 
ATOM     42  N   ALA A   7      18.615  51.247 110.509  0.00  0.00    -0.297 N 
ATOM     43  H   ALA A   7      17.945  52.042 110.516  0.00  0.00    +0.150 HD
ATOM     44  O   GLU A   6      20.043  50.012 109.267  0.00  0.00    -0.273 OA
BRANCH  42  45
ATOM     45  CA  ALA A   7      18.857  50.520 111.749  0.00  0.00    +0.149 C 
ATOM     46  CB  ALA A   7      17.986  51.088 112.860  0.00  0.00    +0.031 C 
BRANCH  45  47
ATOM     47  C   ALA A   7      18.563  49.032 111.586  0.00  0.00    +0.241 C 
ATOM     48  O   ALA A   7      19.397  48.182 111.902  0.00  0.00    -0.273 OA
ATOM     49  N   TYR A   8      17.366  48.729 111.095  0.00  0.00    -0.298 N 
ATOM     50  H   TYR A   8      16.718  49.500 110.836  0.00  0.00    +0.150 HD
BRANCH  49  51
ATOM     51  CA  TYR A   8      16.933  47.351 110.908  0.00  0.00    +0.141 C 
BRANCH  51  52
ATOM     52  C   TYR A   8      17.801  46.633 109.884  0.00  0.00    +0.227 C 
ATOM     53  O   TYR A   8      18.120  45.451 110.036  0.00  0.00    -0.286 OA
ENDBRANCH  51  52
BRANCH  51  54
ATOM     54  CB  TYR A   8      15.454  47.326 110.486  0.00  0.00    +0.054 C 
BRANCH  54  55
ATOM     55  CG  TYR A   8      14.731  46.069 110.909  0.00  0.00    -0.020 A 
ATOM     56  CD2 TYR A   8      14.271  45.917 112.218  0.00  0.00    -0.001 A 
ATOM     57  CE2 TYR A   8      13.647  44.742 112.636  0.00  0.00    +0.036 A 
ATOM     58  CZ  TYR A   8      13.477  43.700 111.736  0.00  0.00    +0.134 A 
ATOM     59  CE1 TYR A   8      13.922  43.827 110.425  0.00  0.00    +0.036 A 
ATOM     60  CD1 TYR A   8      14.547  45.012 110.020  0.00  0.00    -0.001 A 
BRANCH  58  61
ATOM     61  OH  TYR A   8      12.870  42.532 112.146  0.00  0.00    -0.506 OA
ATOM     62  HH  TYR A   8      12.829  41.898 111.386  0.00  0.00    +0.292 HD
ENDBRANCH  58  61
ENDBRANCH  54  55
ENDBRANCH  51  54
ENDBRANCH  49  51
ENDBRANCH  45  47
ENDBRANCH  42  45
ENDBRANCH  40  41
BRANCH  40  63
ATOM     63  CB  GLU A   6      19.640  53.087 108.203  0.00  0.00    +0.041 C 
BRANCH  63  64
ATOM     64  CG  GLU A   6      21.137  52.864 108.362  0.00  0.00    +0.116 C 
BRANCH  64  65
ATOM     65  CD  GLU A   6      21.926  54.154 108.358  0.00  0.00    +0.365 C 
ATOM     66  OE2 GLU A   6      21.325  55.236 108.536  0.00  0.00    -0.246 OA
ATOM     67  OE1 GLU A   6      23.154  54.077 108.184  0.00  0.00    -0.246 OA
ENDBRANCH  64  65
ENDBRANCH  63  64
ENDBRANCH  40  63
ENDBRANCH  37  40
ENDBRANCH  35  36
BRANCH  35  68
ATOM     68  CB  SER A   5      14.757  52.116 106.629  0.00  0.00    +0.166 C 
BRANCH  68  69
ATOM     69  OG  SER A   5      13.365  52.093 106.384  0.00  0.00    -0.380 OA
ATOM     70  H   SER A   5      13.174  52.556 105.530  0.00  0.00    +0.211 HD
ENDBRANCH  68  69
ENDBRANCH  35  68
ENDBRANCH  33  35
ENDBRANCH   1  31
BRANCH   1  71
ATOM     71  CB  TRP A   4      12.908  52.477 111.663  0.00  0.00    +0.057 C 
BRANCH  71  72
ATOM     72  CG  TRP A   4      12.595  51.018 111.703  0.00  0.00    -0.002 A 
ATOM     73  CD1 TRP A   4      12.632  50.196 112.792  0.00  0.00    +0.068 A 
ATOM     74  NE1 TRP A   4      12.320  48.907 112.423  0.00  0.00    -0.352 N 
ATOM     75  HE1 TRP A   4      12.279  48.088 113.063  0.00  0.00    +0.166 HD
ATOM     76  CE2 TRP A   4      12.073  48.878 111.076  0.00  0.00    +0.056 A 
ATOM     77  CZ2 TRP A   4      11.717  47.809 110.243  0.00  0.00    +0.017 A 
ATOM     78  CH2 TRP A   4      11.523  48.076 108.908  0.00  0.00    +0.001 A 
ATOM     79  CZ3 TRP A   4      11.677  49.370 108.393  0.00  0.00    +0.000 A 
ATOM     80  CE3 TRP A   4      12.035  50.441 109.223  0.00  0.00    +0.001 A 
ATOM     81  CD2 TRP A   4      12.237  50.195 110.588  0.00  0.00    +0.013 A 
ENDBRANCH  71  72
ENDBRANCH   1  71
TORSDOF 33
REMARK  Name = ../refined-set-2016/2qry/2qry_pocket.pdb
REMARK  237 active torsions:
REMARK  status: ('A' for Active; 'I' for Inactive)
REMARK    1  A    between atoms: _1  and  _3
REMARK    2  A    between atoms: _3  and  _4
REMARK    3  A    between atoms: _3  and  _6
REMARK    4  A    between atoms: _6  and  _7
REMARK    5  A    between atoms: _10  and  _12
REMARK    6  A    between atoms: _12  and  _13
REMARK    7  A    between atoms: _12  and  _15
REMARK    8  A    between atoms: _15  and  _16
REMARK    9  A    between atoms: _21  and  _22
REMARK   10  A    between atoms: _24  and  _26
REMARK   11  A    between atoms: _26  and  _27
REMARK   12  A    between atoms: _26  and  _29
REMARK   13  A    between atoms: _29  and  _30
REMARK   14  A    between atoms: _33  and  _35
REMARK   15  A    between atoms: _35  and  _36
REMARK   16  A    between atoms: _35  and  _38
REMARK   17  A    between atoms: _38  and  _39
REMARK   18  A    between atoms: _41  and  _43
REMARK   19  A    between atoms: _43  and  _44
REMARK   20  A    between atoms: _43  and  _46
REMARK   21  A    between atoms: _46  and  _47
REMARK   22  A    between atoms: _53  and  _55
REMARK   23  A    between atoms: _55  and  _56
REMARK   24  A    between atoms: _59  and  _61
REMARK   25  A    between atoms: _61  and  _62
REMARK   26  A    between atoms: _61  and  _64
REMARK   27  A    between atoms: _64  and  _65
REMARK   28  A    between atoms: _75  and  _77
REMARK   29  A    between atoms: _77  and  _78
REMARK   30  A    between atoms: _81  and  _82
REMARK   31  A    between atoms: _87  and  _89
REMARK   32  A    between atoms: _89  and  _90
REMARK   33  A    between atoms: _89  and  _92
REMARK   34  A    between atoms: _92  and  _93
REMARK   35  A    between atoms: _93  and  _94
REMARK   36  A    between atoms: _97  and  _99
REMARK   37  A    between atoms: _99  and  _100
REMARK   38  A    between atoms: _99  and  _102
REMARK   39  A    between atoms: _102  and  _103
REMARK   40  A    between atoms: _106  and  _108
REMARK   41  A    between atoms: _108  and  _109
REMARK   42  A    between atoms: _111  and  _113
REMARK   43  A    between atoms: _113  and  _114
REMARK   44  A    between atoms: _113  and  _116
REMARK   45  A    between atoms: _119  and  _121
REMARK   46  A    between atoms: _121  and  _122
REMARK   47  A    between atoms: _121  and  _124
REMARK   48  A    between atoms: _124  and  _125
REMARK   49  A    between atoms: _127  and  _129
REMARK   50  A    between atoms: _129  and  _130
REMARK   51  A    between atoms: _129  and  _132
REMARK   52  A    between atoms: _132  and  _133
REMARK   53  A    between atoms: _136  and  _138
REMARK   54  A    between atoms: _138  and  _139
REMARK   55  A    between atoms: _141  and  _143
REMARK   56  A    between atoms: _143  and  _144
REMARK   57  A    between atoms: _143  and  _146
REMARK   58  A    between atoms: _146  and  _147
REMARK   59  A    between atoms: _150  and  _152
REMARK   60  A    between atoms: _152  and  _153
REMARK   61  A    between atoms: _152  and  _155
REMARK   62  A    between atoms: _155  and  _156
REMARK   63  A    between atoms: _159  and  _161
REMARK   64  A    between atoms: _161  and  _162
REMARK   65  A    between atoms: _161  and  _164
REMARK   66  A    between atoms: _164  and  _165
REMARK   67  A    between atoms: _171  and  _173
REMARK   68  A    between atoms: _173  and  _174
REMARK   69  A    between atoms: _173  and  _176
REMARK   70  A    between atoms: _176  and  _177
REMARK   71  A    between atoms: _180  and  _182
REMARK   72  A    between atoms: _182  and  _183
REMARK   73  A    between atoms: _182  and  _185
REMARK   74  A    between atoms: _185  and  _186
REMARK   75  A    between atoms: _191  and  _192
REMARK   76  A    between atoms: _194  and  _196
REMARK   77  A    between atoms: _196  and  _197
REMARK   78  A    between atoms: _199  and  _201
REMARK   79  A    between atoms: _201  and  _202
REMARK   80  A    between atoms: _201  and  _204
REMARK   81  A    between atoms: _204  and  _205
REMARK   82  A    between atoms: _211  and  _213
REMARK   83  A    between atoms: _213  and  _214
REMARK   84  A    between atoms: _213  and  _216
REMARK   85  A    between atoms: _219  and  _221
REMARK   86  A    between atoms: _221  and  _222
REMARK   87  A    between atoms: _221  and  _224
REMARK   88  A    between atoms: _224  and  _225
REMARK   89  A    between atoms: _225  and  _226
REMARK   90  A    between atoms: _231  and  _233
REMARK   91  A    between atoms: _233  and  _234
REMARK   92  A    between atoms: _233  and  _236
REMARK   93  A    between atoms: _236  and  _237
REMARK   94  A    between atoms: _240  and  _242
REMARK   95  A    between atoms: _242  and  _243
REMARK   96  A    between atoms: _242  and  _245
REMARK   97  A    between atoms: _245  and  _246
REMARK   98  A    between atoms: _246  and  _247
REMARK   99  A    between atoms: _247  and  _248
REMARK  100  A    between atoms: _257  and  _259
REMARK  101  A    between atoms: _259  and  _260
REMARK  102  A    between atoms: _259  and  _262
REMARK  103  A    between atoms: _262  and  _263
REMARK  104  A    between atoms: _266  and  _268
REMARK  105  A    between atoms: _268  and  _269
REMARK  106  A    between atoms: _268  and  _271
REMARK  107  A    between atoms: _271  and  _272
REMARK  108  A    between atoms: _274  and  _276
REMARK  109  A    between atoms: _276  and  _277
REMARK  110  A    between atoms: _276  and  _279
REMARK  111  A    between atoms: _279  and  _280
REMARK  112  A    between atoms: _284  and  _285
REMARK  113  A    between atoms: _290  and  _292
REMARK  114  A    between atoms: _292  and  _293
REMARK  115  A    between atoms: _295  and  _297
REMARK  116  A    between atoms: _297  and  _298
REMARK  117  A    between atoms: _297  and  _300
REMARK  118  A    between atoms: _300  and  _301
REMARK  119  A    between atoms: _304  and  _306
REMARK  120  A    between atoms: _306  and  _307
REMARK  121  A    between atoms: _309  and  _311
REMARK  122  A    between atoms: _311  and  _312
REMARK  123  A    between atoms: _311  and  _314
REMARK  124  A    between atoms: _314  and  _315
REMARK  125  A    between atoms: _318  and  _320
REMARK  126  A    between atoms: _320  and  _321
REMARK  127  A    between atoms: _320  and  _323
REMARK  128  A    between atoms: _323  and  _324
REMARK  129  A    between atoms: _324  and  _325
REMARK  130  A    between atoms: _325  and  _326
REMARK  131  A    between atoms: _326  and  _327
REMARK  132  A    between atoms: _331  and  _333
REMARK  133  A    between atoms: _333  and  _334
REMARK  134  A    between atoms: _336  and  _338
REMARK  135  A    between atoms: _338  and  _339
REMARK  136  A    between atoms: _338  and  _341
REMARK  137  A    between atoms: _341  and  _342
REMARK  138  A    between atoms: _352  and  _354
REMARK  139  A    between atoms: _354  and  _355
REMARK  140  A    between atoms: _354  and  _357
REMARK  141  A    between atoms: _357  and  _358
REMARK  142  A    between atoms: _360  and  _362
REMARK  143  A    between atoms: _362  and  _363
REMARK  144  A    between atoms: _362  and  _365
REMARK  145  A    between atoms: _365  and  _366
REMARK  146  A    between atoms: _366  and  _367
REMARK  147  A    between atoms: _370  and  _372
REMARK  148  A    between atoms: _372  and  _373
REMARK  149  A    between atoms: _376  and  _378
REMARK  150  A    between atoms: _378  and  _379
REMARK  151  A    between atoms: _378  and  _381
REMARK  152  A    between atoms: _381  and  _382
REMARK  153  A    between atoms: _387  and  _388
REMARK  154  A    between atoms: _390  and  _392
REMARK  155  A    between atoms: _392  and  _393
REMARK  156  A    between atoms: _392  and  _395
REMARK  157  A    between atoms: _395  and  _396
REMARK  158  A    between atoms: _399  and  _401
REMARK  159  A    between atoms: _401  and  _402
REMARK  160  A    between atoms: _401  and  _404
REMARK  161  A    between atoms: _404  and  _405
REMARK  162  A    between atoms: _408  and  _410
REMARK  163  A    between atoms: _410  and  _411
REMARK  164  A    between atoms: _410  and  _413
REMARK  165  A    between atoms: _413  and  _414
REMARK  166  A    between atoms: _416  and  _418
REMARK  167  A    between atoms: _418  and  _419
REMARK  168  A    between atoms: _418  and  _421
REMARK  169  A    between atoms: _421  and  _422
REMARK  170  A    between atoms: _427  and  _428
REMARK  171  A    between atoms: _430  and  _432
REMARK  172  A    between atoms: _432  and  _433
REMARK  173  A    between atoms: _432  and  _435
REMARK  174  A    between atoms: _435  and  _436
REMARK  175  A    between atoms: _439  and  _441
REMARK  176  A    between atoms: _441  and  _442
REMARK  177  A    between atoms: _441  and  _444
REMARK  178  A    between atoms: _444  and  _445
REMARK  179  A    between atoms: _448  and  _450
REMARK  180  A    between atoms: _450  and  _451
REMARK  181  A    between atoms: _450  and  _453
REMARK  182  A    between atoms: _453  and  _454
REMARK  183  A    between atoms: _457  and  _458
REMARK  184  A    between atoms: _463  and  _465
REMARK  185  A    between atoms: _465  and  _466
REMARK  186  A    between atoms: _469  and  _471
REMARK  187  A    between atoms: _471  and  _472
REMARK  188  A    between atoms: _471  and  _474
REMARK  189  A    between atoms: _474  and  _475
REMARK  190  A    between atoms: _480  and  _481
REMARK  191  A    between atoms: _483  and  _485
REMARK  192  A    between atoms: _485  and  _486
REMARK  193  A    between atoms: _485  and  _488
REMARK  194  A    between atoms: _488  and  _489
REMARK  195  A    between atoms: _494  and  _496
REMARK  196  A    between atoms: _496  and  _497
REMARK  197  A    between atoms: _496  and  _499
REMARK  198  A    between atoms: _499  and  _500
REMARK  199  A    between atoms: _503  and  _505
REMARK  200  A    between atoms: _505  and  _506
REMARK  201  A    between atoms: _505  and  _508
REMARK  202  A    between atoms: _508  and  _509
REMARK  203  A    between atoms: _509  and  _510
REMARK  204  A    between atoms: _515  and  _517
REMARK  205  A    between atoms: _517  and  _518
REMARK  206  A    between atoms: _517  and  _520
REMARK  207  A    between atoms: _520  and  _521
REMARK  208  A    between atoms: _521  and  _522
REMARK  209  A    between atoms: _525  and  _527
REMARK  210  A    between atoms: _527  and  _528
REMARK  211  A    between atoms: _527  and  _530
REMARK  212  A    between atoms: _530  and  _531
REMARK  213  A    between atoms: _535  and  _536
REMARK  214  A    between atoms: _541  and  _543
REMARK  215  A    between atoms: _543  and  _544
REMARK  216  A    between atoms: _543  and  _546
REMARK  217  A    between atoms: _546  and  _547
REMARK  218  A    between atoms: _550  and  _552
REMARK  219  A    between atoms: _552  and  _553
REMARK  220  A    between atoms: _555  and  _557
REMARK  221  A    between atoms: _557  and  _558
REMARK  222  A    between atoms: _557  and  _560
REMARK  223  A    between atoms: _560  and  _561
REMARK  224  A    between atoms: _566  and  _568
REMARK  225  A    between atoms: _568  and  _569
REMARK  226  A    between atoms: _568  and  _571
REMARK  227  A    between atoms: _571  and  _572
REMARK  228  A    between atoms: _582  and  _584
REMARK  229  A    between atoms: _584  and  _585
REMARK  230  A    between atoms: _584  and  _587
REMARK  231  A    between atoms: _587  and  _588
REMARK  232  A    between atoms: _588  and  _589
REMARK  233  A    between atoms: _591  and  _593
REMARK  234  A    between atoms: _593  and  _594
REMARK  235  A    between atoms: _593  and  _596
REMARK  236  A    between atoms: _596  and  _597
REMARK  237  A    between atoms: _602  and  _603
REMARK                            x       y       z     vdW  Elec       q    Type
REMARK                         _______ _______ _______ _____ _____    ______ ____
ROOT
ATOM      1  CA  LEU A   1      19.766  41.991 109.520  0.00  0.00    +0.133 C 
ENDROOT
BRANCH   1   2
ATOM      2  N   LEU A   1      19.874  43.154 110.392  0.00  0.00    -0.239 NA
ATOM      3  H   LEU A   1      19.300  43.998 110.192  0.00  0.00    +0.142 HD
ENDBRANCH   1   2
BRANCH   1   4
ATOM      4  C   LEU A   1      21.103  41.621 108.890  0.00  0.00    +0.224 C 
ATOM      5  O   LEU A   1      21.329  40.461 108.551  0.00  0.00    -0.287 OA
ENDBRANCH   1   4
BRANCH   1   6
ATOM      6  CB  LEU A   1      18.730  42.235 108.427  0.00  0.00    +0.025 C 
BRANCH   6   7
ATOM      7  CG  LEU A   1      17.303  42.418 108.933  0.00  0.00    +0.002 C 
ATOM      8  CD2 LEU A   1      16.822  41.134 109.585  0.00  0.00    +0.000 C 
ATOM      9  CD1 LEU A   1      16.406  42.804 107.778  0.00  0.00    +0.000 C 
ENDBRANCH   6   7
ENDBRANCH   1   6
TORSDOF 4
REMARK  Name = ../refined-set-2016/2qry/2qry_pocket.pdb
REMARK  237 active torsions:
REMARK  status: ('A' for Active; 'I' for Inactive)
REMARK    1  A    between atoms: _1  and  _3
REMARK    2  A    between atoms: _3  and  _4
REMARK    3  A    between atoms: _3  and  _6
REMARK    4  A    between atoms: _6  and  _7
REMARK    5  A    between atoms: _10  and  _12
REMARK    6  A    between atoms: _12  and  _13
REMARK    7  A    between atoms: _12  and  _15
REMARK    8  A    between atoms: _15  and  _16
REMARK    9  A    between atoms: _21  and  _22
REMARK   10  A    between atoms: _24  and  _26
REMARK   11  A    between atoms: _26  and  _27
REMARK   12  A    between atoms: _26  and  _29
REMARK   13  A    between atoms: _29  and  _30
REMARK   14  A    between atoms: _33  and  _35
REMARK   15  A    between atoms: _35  and  _36
REMARK   16  A    between atoms: _35  and  _38
REMARK   17  A    between atoms: _38  and  _39
REMARK   18  A    between atoms: _41  and  _43
REMARK   19  A    between atoms: _43  and  _44
REMARK   20  A    between atoms: _43  and  _46
REMARK   21  A    between atoms: _46  and  _47
REMARK   22  A    between atoms: _53  and  _55
REMARK   23  A    between atoms: _55  and  _56
REMARK   24  A    between atoms: _59  and  _61
REMARK   25  A    between atoms: _61  and  _62
REMARK   26  A    between atoms: _61  and  _64
REMARK   27  A    between atoms: _64  and  _65
REMARK   28  A    between atoms: _75  and  _77
REMARK   29  A    between atoms: _77  and  _78
REMARK   30  A    between atoms: _81  and  _82
REMARK   31  A    between atoms: _87  and  _89
REMARK   32  A    between atoms: _89  and  _90
REMARK   33  A    between atoms: _89  and  _92
REMARK   34  A    between atoms: _92  and  _93
REMARK   35  A    between atoms: _93  and  _94
REMARK   36  A    between atoms: _97  and  _99
REMARK   37  A    between atoms: _99  and  _100
REMARK   38  A    between atoms: _99  and  _102
REMARK   39  A    between atoms: _102  and  _103
REMARK   40  A    between atoms: _106  and  _108
REMARK   41  A    between atoms: _108  and  _109
REMARK   42  A    between atoms: _111  and  _113
REMARK   43  A    between atoms: _113  and  _114
REMARK   44  A    between atoms: _113  and  _116
REMARK   45  A    between atoms: _119  and  _121
REMARK   46  A    between atoms: _121  and  _122
REMARK   47  A    between atoms: _121  and  _124
REMARK   48  A    between atoms: _124  and  _125
REMARK   49  A    between atoms: _127  and  _129
REMARK   50  A    between atoms: _129  and  _130
REMARK   51  A    between atoms: _129  and  _132
REMARK   52  A    between atoms: _132  and  _133
REMARK   53  A    between atoms: _136  and  _138
REMARK   54  A    between atoms: _138  and  _139
REMARK   55  A    between atoms: _141  and  _143
REMARK   56  A    between atoms: _143  and  _144
REMARK   57  A    between atoms: _143  and  _146
REMARK   58  A    between atoms: _146  and  _147
REMARK   59  A    between atoms: _150  and  _152
REMARK   60  A    between atoms: _152  and  _153
REMARK   61  A    between atoms: _152  and  _155
REMARK   62  A    between atoms: _155  and  _156
REMARK   63  A    between atoms: _159  and  _161
REMARK   64  A    between atoms: _161  and  _162
REMARK   65  A    between atoms: _161  and  _164
REMARK   66  A    between atoms: _164  and  _165
REMARK   67  A    between atoms: _171  and  _173
REMARK   68  A    between atoms: _173  and  _174
REMARK   69  A    between atoms: _173  and  _176
REMARK   70  A    between atoms: _176  and  _177
REMARK   71  A    between atoms: _180  and  _182
REMARK   72  A    between atoms: _182  and  _183
REMARK   73  A    between atoms: _182  and  _185
REMARK   74  A    between atoms: _185  and  _186
REMARK   75  A    between atoms: _191  and  _192
REMARK   76  A    between atoms: _194  and  _196
REMARK   77  A    between atoms: _196  and  _197
REMARK   78  A    between atoms: _199  and  _201
REMARK   79  A    between atoms: _201  and  _202
REMARK   80  A    between atoms: _201  and  _204
REMARK   81  A    between atoms: _204  and  _205
REMARK   82  A    between atoms: _211  and  _213
REMARK   83  A    between atoms: _213  and  _214
REMARK   84  A    between atoms: _213  and  _216
REMARK   85  A    between atoms: _219  and  _221
REMARK   86  A    between atoms: _221  and  _222
REMARK   87  A    between atoms: _221  and  _224
REMARK   88  A    between atoms: _224  and  _225
REMARK   89  A    between atoms: _225  and  _226
REMARK   90  A    between atoms: _231  and  _233
REMARK   91  A    between atoms: _233  and  _234
REMARK   92  A    between atoms: _233  and  _236
REMARK   93  A    between atoms: _236  and  _237
REMARK   94  A    between atoms: _240  and  _242
REMARK   95  A    between atoms: _242  and  _243
REMARK   96  A    between atoms: _242  and  _245
REMARK   97  A    between atoms: _245  and  _246
REMARK   98  A    between atoms: _246  and  _247
REMARK   99  A    between atoms: _247  and  _248
REMARK  100  A    between atoms: _257  and  _259
REMARK  101  A    between atoms: _259  and  _260
REMARK  102  A    between atoms: _259  and  _262
REMARK  103  A    between atoms: _262  and  _263
REMARK  104  A    between atoms: _266  and  _268
REMARK  105  A    between atoms: _268  and  _269
REMARK  106  A    between atoms: _268  and  _271
REMARK  107  A    between atoms: _271  and  _272
REMARK  108  A    between atoms: _274  and  _276
REMARK  109  A    between atoms: _276  and  _277
REMARK  110  A    between atoms: _276  and  _279
REMARK  111  A    between atoms: _279  and  _280
REMARK  112  A    between atoms: _284  and  _285
REMARK  113  A    between atoms: _290  and  _292
REMARK  114  A    between atoms: _292  and  _293
REMARK  115  A    between atoms: _295  and  _297
REMARK  116  A    between atoms: _297  and  _298
REMARK  117  A    between atoms: _297  and  _300
REMARK  118  A    between atoms: _300  and  _301
REMARK  119  A    between atoms: _304  and  _306
REMARK  120  A    between atoms: _306  and  _307
REMARK  121  A    between atoms: _309  and  _311
REMARK  122  A    between atoms: _311  and  _312
REMARK  123  A    between atoms: _311  and  _314
REMARK  124  A    between atoms: _314  and  _315
REMARK  125  A    between atoms: _318  and  _320
REMARK  126  A    between atoms: _320  and  _321
REMARK  127  A    between atoms: _320  and  _323
REMARK  128  A    between atoms: _323  and  _324
REMARK  129  A    between atoms: _324  and  _325
REMARK  130  A    between atoms: _325  and  _326
REMARK  131  A    between atoms: _326  and  _327
REMARK  132  A    between atoms: _331  and  _333
REMARK  133  A    between atoms: _333  and  _334
REMARK  134  A    between atoms: _336  and  _338
REMARK  135  A    between atoms: _338  and  _339
REMARK  136  A    between atoms: _338  and  _341
REMARK  137  A    between atoms: _341  and  _342
REMARK  138  A    between atoms: _352  and  _354
REMARK  139  A    between atoms: _354  and  _355
REMARK  140  A    between atoms: _354  and  _357
REMARK  141  A    between atoms: _357  and  _358
REMARK  142  A    between atoms: _360  and  _362
REMARK  143  A    between atoms: _362  and  _363
REMARK  144  A    between atoms: _362  and  _365
REMARK  145  A    between atoms: _365  and  _366
REMARK  146  A    between atoms: _366  and  _367
REMARK  147  A    between atoms: _370  and  _372
REMARK  148  A    between atoms: _372  and  _373
REMARK  149  A    between atoms: _376  and  _378
REMARK  150  A    between atoms: _378  and  _379
REMARK  151  A    between atoms: _378  and  _381
REMARK  152  A    between atoms: _381  and  _382
REMARK  153  A    between atoms: _387  and  _388
REMARK  154  A    between atoms: _390  and  _392
REMARK  155  A    between atoms: _392  and  _393
REMARK  156  A    between atoms: _392  and  _395
REMARK  157  A    between atoms: _395  and  _396
REMARK  158  A    between atoms: _399  and  _401
REMARK  159  A    between atoms: _401  and  _402
REMARK  160  A    between atoms: _401  and  _404
REMARK  161  A    between atoms: _404  and  _405
REMARK  162  A    between atoms: _408  and  _410
REMARK  163  A    between atoms: _410  and  _411
REMARK  164  A    between atoms: _410  and  _413
REMARK  165  A    between atoms: _413  and  _414
REMARK  166  A    between atoms: _416  and  _418
REMARK  167  A    between atoms: _418  and  _419
REMARK  168  A    between atoms: _418  and  _421
REMARK  169  A    between atoms: _421  and  _422
REMARK  170  A    between atoms: _427  and  _428
REMARK  171  A    between atoms: _430  and  _432
REMARK  172  A    between atoms: _432  and  _433
REMARK  173  A    between atoms: _432  and  _435
REMARK  174  A    between atoms: _435  and  _436
REMARK  175  A    between atoms: _439  and  _441
REMARK  176  A    between atoms: _441  and  _442
REMARK  177  A    between atoms: _441  and  _444
REMARK  178  A    between atoms: _444  and  _445
REMARK  179  A    between atoms: _448  and  _450
REMARK  180  A    between atoms: _450  and  _451
REMARK  181  A    between atoms: _450  and  _453
REMARK  182  A    between atoms: _453  and  _454
REMARK  183  A    between atoms: _457  and  _458
REMARK  184  A    between atoms: _463  and  _465
REMARK  185  A    between atoms: _465  and  _466
REMARK  186  A    between atoms: _469  and  _471
REMARK  187  A    between atoms: _471  and  _472
REMARK  188  A    between atoms: _471  and  _474
REMARK  189  A    between atoms: _474  and  _475
REMARK  190  A    between atoms: _480  and  _481
REMARK  191  A    between atoms: _483  and  _485
REMARK  192  A    between atoms: _485  and  _486
REMARK  193  A    between atoms: _485  and  _488
REMARK  194  A    between atoms: _488  and  _489
REMARK  195  A    between atoms: _494  and  _496
REMARK  196  A    between atoms: _496  and  _497
REMARK  197  A    between atoms: _496  and  _499
REMARK  198  A    between atoms: _499  and  _500
REMARK  199  A    between atoms: _503  and  _505
REMARK  200  A    between atoms: _505  and  _506
REMARK  201  A    between atoms: _505  and  _508
REMARK  202  A    between atoms: _508  and  _509
REMARK  203  A    between atoms: _509  and  _510
REMARK  204  A    between atoms: _515  and  _517
REMARK  205  A    between atoms: _517  and  _518
REMARK  206  A    between atoms: _517  and  _520
REMARK  207  A    between atoms: _520  and  _521
REMARK  208  A    between atoms: _521  and  _522
REMARK  209  A    between atoms: _525  and  _527
REMARK  210  A    between atoms: _527  and  _528
REMARK  211  A    between atoms: _527  and  _530
REMARK  212  A    between atoms: _530  and  _531
REMARK  213  A    between atoms: _535  and  _536
REMARK  214  A    between atoms: _541  and  _543
REMARK  215  A    between atoms: _543  and  _544
REMARK  216  A    between atoms: _543  and  _546
REMARK  217  A    between atoms: _546  and  _547
REMARK  218  A    between atoms: _550  and  _552
REMARK  219  A    between atoms: _552  and  _553
REMARK  220  A    between atoms: _555  and  _557
REMARK  221  A    between atoms: _557  and  _558
REMARK  222  A    between atoms: _557  and  _560
REMARK  223  A    between atoms: _560  and  _561
REMARK  224  A    between atoms: _566  and  _568
REMARK  225  A    between atoms: _568  and  _569
REMARK  226  A    between atoms: _568  and  _571
REMARK  227  A    between atoms: _571  and  _572
REMARK  228  A    between atoms: _582  and  _584
REMARK  229  A    between atoms: _584  and  _585
REMARK  230  A    between atoms: _584  and  _587
REMARK  231  A    between atoms: _587  and  _588
REMARK  232  A    between atoms: _588  and  _589
REMARK  233  A    between atoms: _591  and  _593
REMARK  234  A    between atoms: _593  and  _594
REMARK  235  A    between atoms: _593  and  _596
REMARK  236  A    between atoms: _596  and  _597
REMARK  237  A    between atoms: _602  and  _603
REMARK                            x       y       z     vdW  Elec       q    Type
REMARK                         _______ _______ _______ _____ _____    ______ ____
ROOT
ATOM      1  CA  SER A   6       8.508  42.886 113.364  0.00  0.00    +0.178 C 
ENDROOT
BRANCH   1   2
ATOM      2  C   SER A   6       8.730  41.420 112.988  0.00  0.00    +0.246 C 
ATOM      3  N   PRO A   7       8.640  40.500 113.961  0.00  0.00    -0.272 N 
ATOM      4  CD  PRO A   7       8.571  40.659 115.426  0.00  0.00    +0.094 C 
ATOM      5  CG  PRO A   7       9.226  39.375 115.923  0.00  0.00    +0.024 C 
ATOM      6  CB  PRO A   7       8.710  38.357 114.913  0.00  0.00    +0.031 C 
ATOM      7  CA  PRO A   7       8.858  39.097 113.587  0.00  0.00    +0.152 C 
ATOM      8  O   SER A   6       8.984  41.107 111.825  0.00  0.00    -0.273 OA
BRANCH   7   9
ATOM      9  C   PRO A   7       7.870  38.612 112.534  0.00  0.00    +0.241 C 
ATOM     10  N   ALA A   8       6.664  39.166 112.564  0.00  0.00    -0.297 N 
ATOM     11  H   ALA A   8       6.456  39.888 113.283  0.00  0.00    +0.150 HD
ATOM     12  O   PRO A   7       8.200  37.763 111.705  0.00  0.00    -0.273 OA
BRANCH  10  13
ATOM     13  CA  ALA A   8       5.625  38.788 111.615  0.00  0.00    +0.149 C 
ATOM     14  CB  ALA A   8       4.356  39.584 111.882  0.00  0.00    +0.031 C 
BRANCH  13  15
ATOM     15  C   ALA A   8       6.077  38.989 110.168  0.00  0.00    +0.241 C 
ATOM     16  N   TYR A   9       6.899  40.008 109.922  0.00  0.00    -0.297 N 
ATOM     17  H   TYR A   9       7.196  40.640 110.692  0.00  0.00    +0.150 HD
ATOM     18  O   ALA A   8       5.676  38.234 109.274  0.00  0.00    -0.273 OA
BRANCH  16  19
ATOM     19  CA  TYR A   9       7.381  40.230 108.557  0.00  0.00    +0.153 C 
BRANCH  19  20
ATOM     20  C   TYR A   9       8.146  39.004 108.074  0.00  0.00    +0.241 C 
ATOM     21  N   HIS A  10       9.100  38.555 108.883  0.00  0.00    -0.297 N 
ATOM     22  H   HIS A  10       9.273  39.039 109.787  0.00  0.00    +0.150 HD
ATOM     23  O   TYR A   9       7.885  38.483 106.987  0.00  0.00    -0.273 OA
BRANCH  21  24
ATOM     24  CA  HIS A  10       9.904  37.402 108.526  0.00  0.00    +0.155 C 
BRANCH  24  25
ATOM     25  C   HIS A  10       9.106  36.104 108.461  0.00  0.00    +0.241 C 
ATOM     26  N   ILE A  11       8.145  35.936 109.359  0.00  0.00    -0.298 N 
ATOM     27  H   ILE A  11       7.968  36.672 110.072  0.00  0.00    +0.150 HD
ATOM     28  O   HIS A  10       9.350  35.263 107.596  0.00  0.00    -0.273 OA
BRANCH  26  29
ATOM     29  CA  ILE A  11       7.336  34.725 109.351  0.00  0.00    +0.137 C 
BRANCH  29  30
ATOM     30  CB  ILE A  11       6.327  34.716 110.521  0.00  0.00    +0.026 C 
ATOM     31  CG2 ILE A  11       5.422  33.488 110.421  0.00  0.00    +0.002 C 
BRANCH  30  32
ATOM     32  CG1 ILE A  11       7.076  34.715 111.857  0.00  0.00    +0.002 C 
ATOM     33  CD1 ILE A  11       6.161  34.774 113.081  0.00  0.00    +0.000 C 
ENDBRANCH  30  32
ENDBRANCH  29  30
BRANCH  29  34
ATOM     34  C   ILE A  11       6.561  34.572 108.036  0.00  0.00    +0.227 C 
ATOM     35  O   ILE A  11       6.722  33.585 107.326  0.00  0.00    -0.286 OA
ENDBRANCH  29  34
ENDBRANCH  26  29
ENDBRANCH  24  25
BRANCH  24  36
ATOM     36  CB  HIS A  10      11.071  37.259 109.497  0.00  0.00    +0.076 C 
BRANCH  36  37
ATOM     37  CG  HIS A  10      12.018  38.420 109.474  0.00  0.00    +0.082 A 
ATOM     38  ND1 HIS A  10      11.878  39.514 110.302  0.00  0.00    -0.227 NA
ATOM     39  CE1 HIS A  10      12.839  40.383 110.045  0.00  0.00    +0.199 A 
ATOM     40  NE2 HIS A  10      13.597  39.893 109.082  0.00  0.00    -0.221 NA
ATOM     41  CD2 HIS A  10      13.104  38.668 108.706  0.00  0.00    +0.115 A 
ENDBRANCH  36  37
ENDBRANCH  24  36
ENDBRANCH  21  24
ENDBRANCH  19  20
BRANCH  19  42
ATOM     42  CB  TYR A   9       8.322  41.429 108.466  0.00  0.00    +0.055 C 
BRANCH  42  43
ATOM     43  CG  TYR A   9       9.100  41.422 107.170  0.00  0.00    -0.020 A 
ATOM     44  CD2 TYR A   9      10.427  40.979 107.130  0.00  0.00    -0.001 A 
ATOM     45  CE2 TYR A   9      11.111  40.869 105.924  0.00  0.00    +0.036 A 
ATOM     46  CZ  TYR A   9      10.469  41.209 104.737  0.00  0.00    +0.134 A 
ATOM     47  CE1 TYR A   9       9.158  41.658 104.754  0.00  0.00    +0.036 A 
ATOM     48  CD1 TYR A   9       8.482  41.763 105.967  0.00  0.00    -0.001 A 
BRANCH  46  49
ATOM     49  OH  TYR A   9      11.129  41.084 103.533  0.00  0.00    -0.506 OA
ATOM     50  HH  TYR A   9      10.529  41.367 102.798  0.00  0.00    +0.292 HD
ENDBRANCH  46  49
ENDBRANCH  42  43
ENDBRANCH  19  42
ENDBRANCH  16  19
ENDBRANCH  13  15
ENDBRANCH  10  13
ENDBRANCH   7   9
ENDBRANCH   1   2
BRANCH   1  52
ATOM     51  C   THR A   5       6.250  42.632 114.167  0.00  0.00    +0.243 C 
ATOM     52  N   SER A   6       7.482  43.077 114.379  0.00  0.00    -0.295 N 
ATOM     53  H   SER A   6       7.714  43.562 115.269  0.00  0.00    +0.150 HD
ATOM     54  O   THR A   5       5.934  42.034 113.134  0.00  0.00    -0.273 OA
BRANCH  51  55
ATOM     55  CA  THR A   5       5.217  42.885 115.269  0.00  0.00    +0.176 C 
BRANCH  55  58
ATOM     56  C   THR A   4       6.094  42.752 117.547  0.00  0.00    +0.243 C 
ATOM     57  O   THR A   4       5.985  41.535 117.593  0.00  0.00    -0.273 OA
ATOM     58  N   THR A   5       5.769  43.476 116.481  0.00  0.00    -0.295 N 
ATOM     59  H   THR A   5       5.914  44.505 116.513  0.00  0.00    +0.150 HD
BRANCH  56  60
ATOM     60  CA  THR A   4       6.628  43.523 118.743  0.00  0.00    +0.176 C 
BRANCH  60  62
ATOM     61  C   TYR A   3       7.999  45.046 117.429  0.00  0.00    +0.241 C 
ATOM     62  N   THR A   4       7.047  44.868 118.346  0.00  0.00    -0.295 N 
ATOM     63  H   THR A   4       6.596  45.696 118.785  0.00  0.00    +0.150 HD
ATOM     64  O   TYR A   3       8.552  44.108 116.851  0.00  0.00    -0.273 OA
BRANCH  61  65
ATOM     65  CA  TYR A   3       8.358  46.494 117.087  0.00  0.00    +0.153 C 
BRANCH  65  68
ATOM     66  C   SER A   2      10.493  47.669 117.108  0.00  0.00    +0.243 C 
ATOM     67  O   SER A   2      10.131  48.378 118.049  0.00  0.00    -0.273 OA
ATOM     68  N   TYR A   3       9.716  46.719 116.588  0.00  0.00    -0.297 N 
ATOM     69  H   TYR A   3      10.081  46.127 115.814  0.00  0.00    +0.150 HD
BRANCH  66  70
ATOM     70  CA  SER A   2      11.893  47.855 116.507  0.00  0.00    +0.178 C 
BRANCH  70  72
ATOM     71  C   LEU A   1      13.981  48.709 117.421  0.00  0.00    +0.238 C 
ATOM     72  N   SER A   2      12.884  47.978 117.572  0.00  0.00    -0.295 N 
ATOM     73  H   SER A   2      12.726  47.480 118.471  0.00  0.00    +0.150 HD
ATOM     74  O   LEU A   1      14.249  49.307 116.383  0.00  0.00    -0.274 OA
BRANCH  71  75
ATOM     75  CA  LEU A   1      14.933  48.759 118.613  0.00  0.00    +0.145 C 
BRANCH  75  76
ATOM     76  N   LEU A   1      16.234  48.300 118.161  0.00  0.00    -0.238 NA
ATOM     77  H   LEU A   1      17.023  48.971 118.061  0.00  0.00    +0.142 HD
ENDBRANCH  75  76
BRANCH  75  78
ATOM     78  CB  LEU A   1      14.987  50.186 119.135  0.00  0.00    +0.026 C 
BRANCH  78  79
ATOM     79  CG  LEU A   1      13.589  50.480 119.671  0.00  0.00    +0.002 C 
ATOM     80  CD2 LEU A   1      13.691  50.825 121.131  0.00  0.00    +0.000 C 
ATOM     81  CD1 LEU A   1      12.908  51.567 118.859  0.00  0.00    +0.000 C 
ENDBRANCH  78  79
ENDBRANCH  75  78
ENDBRANCH  71  75
ENDBRANCH  70  72
BRANCH  70  82
ATOM     82  CB  SER A   2      12.248  46.683 115.582  0.00  0.00    +0.166 C 
BRANCH  82  83
ATOM     83  OG  SER A   2      11.548  46.774 114.351  0.00  0.00    -0.380 OA
ATOM     84  H   SER A   2      10.574  46.757 114.525  0.00  0.00    +0.211 HD
ENDBRANCH  82  83
ENDBRANCH  70  82
ENDBRANCH  66  70
ENDBRANCH  65  68
BRANCH  65  85
ATOM     85  CB  TYR A   3       7.341  47.001 116.070  0.00  0.00    +0.055 C 
BRANCH  85  86
ATOM     86  CG  TYR A   3       7.353  48.496 115.867  0.00  0.00    -0.020 A 
ATOM     87  CD2 TYR A   3       6.377  49.304 116.455  0.00  0.00    -0.001 A 
ATOM     88  CE2 TYR A   3       6.359  50.683 116.243  0.00  0.00    +0.036 A 
ATOM     89  CZ  TYR A   3       7.324  51.255 115.431  0.00  0.00    +0.134 A 
ATOM     90  CE1 TYR A   3       8.303  50.470 114.839  0.00  0.00    +0.036 A 
ATOM     91  CD1 TYR A   3       8.317  49.101 115.063  0.00  0.00    -0.001 A 
BRANCH  89  92
ATOM     92  OH  TYR A   3       7.313  52.606 115.202  0.00  0.00    -0.506 OA
ATOM     93  HH  TYR A   3       6.457  52.860 114.774  0.00  0.00    +0.292 HD
ENDBRANCH  89  92
ENDBRANCH  85  86
ENDBRANCH  65  85
ENDBRANCH  61  65
ENDBRANCH  60  62
BRANCH  60  94
ATOM     94  CB  THR A   4       5.501  43.533 119.814  0.00  0.00    +0.137 C 
ATOM     95  CG2 THR A   4       6.001  44.131 121.115  0.00  0.00    +0.034 C 
BRANCH  94  96
ATOM     96  OG1 THR A   4       4.374  44.280 119.331  0.00  0.00    -0.382 OA
ATOM     97  HG1 THR A   4       4.653  45.211 119.141  0.00  0.00    +0.210 HD
ENDBRANCH  94  96
ENDBRANCH  60  94
ENDBRANCH  56  60
ENDBRANCH  55  58
BRANCH  55  98
ATOM     98  CB  THR A   5       4.095  43.785 114.689  0.00  0.00    +0.137 C 
ATOM     99  CG2 THR A   5       2.811  43.665 115.528  0.00  0.00    +0.034 C 
BRANCH  98 100
ATOM    100  OG1 THR A   5       4.536  45.152 114.678  0.00  0.00    -0.382 OA
ATOM    101  HG1 THR A   5       3.819  45.726 114.308  0.00  0.00    +0.210 HD
ENDBRANCH  98 100
ENDBRANCH  55  98
ENDBRANCH  51  55
ENDBRANCH   1  52
BRANCH   1 102
ATOM    102  CB  SER A   6       9.832  43.514 113.817  0.00  0.00    +0.166 C 
BRANCH 102 103
ATOM    103  OG  SER A   6       9.711  44.921 113.906  0.00  0.00    -0.380 OA
ATOM    104  H   SER A   6      10.574  45.307 114.199  0.00  0.00    +0.211 HD
ENDBRANCH 102 103
ENDBRANCH   1 102
TORSDOF 41
REMARK  Name = ../refined-set-2016/2qry/2qry_pocket.pdb
REMARK  237 active torsions:
REMARK  status: ('A' for Active; 'I' for Inactive)
REMARK    1  A    between atoms: _1  and  _3
REMARK    2  A    between atoms: _3  and  _4
REMARK    3  A    between atoms: _3  and  _6
REMARK    4  A    between atoms: _6  and  _7
REMARK    5  A    between atoms: _10  and  _12
REMARK    6  A    between atoms: _12  and  _13
REMARK    7  A    between atoms: _12  and  _15
REMARK    8  A    between atoms: _15  and  _16
REMARK    9  A    between atoms: _21  and  _22
REMARK   10  A    between atoms: _24  and  _26
REMARK   11  A    between atoms: _26  and  _27
REMARK   12  A    between atoms: _26  and  _29
REMARK   13  A    between atoms: _29  and  _30
REMARK   14  A    between atoms: _33  and  _35
REMARK   15  A    between atoms: _35  and  _36
REMARK   16  A    between atoms: _35  and  _38
REMARK   17  A    between atoms: _38  and  _39
REMARK   18  A    between atoms: _41  and  _43
REMARK   19  A    between atoms: _43  and  _44
REMARK   20  A    between atoms: _43  and  _46
REMARK   21  A    between atoms: _46  and  _47
REMARK   22  A    between atoms: _53  and  _55
REMARK   23  A    between atoms: _55  and  _56
REMARK   24  A    between atoms: _59  and  _61
REMARK   25  A    between atoms: _61  and  _62
REMARK   26  A    between atoms: _61  and  _64
REMARK   27  A    between atoms: _64  and  _65
REMARK   28  A    between atoms: _75  and  _77
REMARK   29  A    between atoms: _77  and  _78
REMARK   30  A    between atoms: _81  and  _82
REMARK   31  A    between atoms: _87  and  _89
REMARK   32  A    between atoms: _89  and  _90
REMARK   33  A    between atoms: _89  and  _92
REMARK   34  A    between atoms: _92  and  _93
REMARK   35  A    between atoms: _93  and  _94
REMARK   36  A    between atoms: _97  and  _99
REMARK   37  A    between atoms: _99  and  _100
REMARK   38  A    between atoms: _99  and  _102
REMARK   39  A    between atoms: _102  and  _103
REMARK   40  A    between atoms: _106  and  _108
REMARK   41  A    between atoms: _108  and  _109
REMARK   42  A    between atoms: _111  and  _113
REMARK   43  A    between atoms: _113  and  _114
REMARK   44  A    between atoms: _113  and  _116
REMARK   45  A    between atoms: _119  and  _121
REMARK   46  A    between atoms: _121  and  _122
REMARK   47  A    between atoms: _121  and  _124
REMARK   48  A    between atoms: _124  and  _125
REMARK   49  A    between atoms: _127  and  _129
REMARK   50  A    between atoms: _129  and  _130
REMARK   51  A    between atoms: _129  and  _132
REMARK   52  A    between atoms: _132  and  _133
REMARK   53  A    between atoms: _136  and  _138
REMARK   54  A    between atoms: _138  and  _139
REMARK   55  A    between atoms: _141  and  _143
REMARK   56  A    between atoms: _143  and  _144
REMARK   57  A    between atoms: _143  and  _146
REMARK   58  A    between atoms: _146  and  _147
REMARK   59  A    between atoms: _150  and  _152
REMARK   60  A    between atoms: _152  and  _153
REMARK   61  A    between atoms: _152  and  _155
REMARK   62  A    between atoms: _155  and  _156
REMARK   63  A    between atoms: _159  and  _161
REMARK   64  A    between atoms: _161  and  _162
REMARK   65  A    between atoms: _161  and  _164
REMARK   66  A    between atoms: _164  and  _165
REMARK   67  A    between atoms: _171  and  _173
REMARK   68  A    between atoms: _173  and  _174
REMARK   69  A    between atoms: _173  and  _176
REMARK   70  A    between atoms: _176  and  _177
REMARK   71  A    between atoms: _180  and  _182
REMARK   72  A    between atoms: _182  and  _183
REMARK   73  A    between atoms: _182  and  _185
REMARK   74  A    between atoms: _185  and  _186
REMARK   75  A    between atoms: _191  and  _192
REMARK   76  A    between atoms: _194  and  _196
REMARK   77  A    between atoms: _196  and  _197
REMARK   78  A    between atoms: _199  and  _201
REMARK   79  A    between atoms: _201  and  _202
REMARK   80  A    between atoms: _201  and  _204
REMARK   81  A    between atoms: _204  and  _205
REMARK   82  A    between atoms: _211  and  _213
REMARK   83  A    between atoms: _213  and  _214
REMARK   84  A    between atoms: _213  and  _216
REMARK   85  A    between atoms: _219  and  _221
REMARK   86  A    between atoms: _221  and  _222
REMARK   87  A    between atoms: _221  and  _224
REMARK   88  A    between atoms: _224  and  _225
REMARK   89  A    between atoms: _225  and  _226
REMARK   90  A    between atoms: _231  and  _233
REMARK   91  A    between atoms: _233  and  _234
REMARK   92  A    between atoms: _233  and  _236
REMARK   93  A    between atoms: _236  and  _237
REMARK   94  A    between atoms: _240  and  _242
REMARK   95  A    between atoms: _242  and  _243
REMARK   96  A    between atoms: _242  and  _245
REMARK   97  A    between atoms: _245  and  _246
REMARK   98  A    between atoms: _246  and  _247
REMARK   99  A    between atoms: _247  and  _248
REMARK  100  A    between atoms: _257  and  _259
REMARK  101  A    between atoms: _259  and  _260
REMARK  102  A    between atoms: _259  and  _262
REMARK  103  A    between atoms: _262  and  _263
REMARK  104  A    between atoms: _266  and  _268
REMARK  105  A    between atoms: _268  and  _269
REMARK  106  A    between atoms: _268  and  _271
REMARK  107  A    between atoms: _271  and  _272
REMARK  108  A    between atoms: _274  and  _276
REMARK  109  A    between atoms: _276  and  _277
REMARK  110  A    between atoms: _276  and  _279
REMARK  111  A    between atoms: _279  and  _280
REMARK  112  A    between atoms: _284  and  _285
REMARK  113  A    between atoms: _290  and  _292
REMARK  114  A    between atoms: _292  and  _293
REMARK  115  A    between atoms: _295  and  _297
REMARK  116  A    between atoms: _297  and  _298
REMARK  117  A    between atoms: _297  and  _300
REMARK  118  A    between atoms: _300  and  _301
REMARK  119  A    between atoms: _304  and  _306
REMARK  120  A    between atoms: _306  and  _307
REMARK  121  A    between atoms: _309  and  _311
REMARK  122  A    between atoms: _311  and  _312
REMARK  123  A    between atoms: _311  and  _314
REMARK  124  A    between atoms: _314  and  _315
REMARK  125  A    between atoms: _318  and  _320
REMARK  126  A    between atoms: _320  and  _321
REMARK  127  A    between atoms: _320  and  _323
REMARK  128  A    between atoms: _323  and  _324
REMARK  129  A    between atoms: _324  and  _325
REMARK  130  A    between atoms: _325  and  _326
REMARK  131  A    between atoms: _326  and  _327
REMARK  132  A    between atoms: _331  and  _333
REMARK  133  A    between atoms: _333  and  _334
REMARK  134  A    between atoms: _336  and  _338
REMARK  135  A    between atoms: _338  and  _339
REMARK  136  A    between atoms: _338  and  _341
REMARK  137  A    between atoms: _341  and  _342
REMARK  138  A    between atoms: _352  and  _354
REMARK  139  A    between atoms: _354  and  _355
REMARK  140  A    between atoms: _354  and  _357
REMARK  141  A    between atoms: _357  and  _358
REMARK  142  A    between atoms: _360  and  _362
REMARK  143  A    between atoms: _362  and  _363
REMARK  144  A    between atoms: _362  and  _365
REMARK  145  A    between atoms: _365  and  _366
REMARK  146  A    between atoms: _366  and  _367
REMARK  147  A    between atoms: _370  and  _372
REMARK  148  A    between atoms: _372  and  _373
REMARK  149  A    between atoms: _376  and  _378
REMARK  150  A    between atoms: _378  and  _379
REMARK  151  A    between atoms: _378  and  _381
REMARK  152  A    between atoms: _381  and  _382
REMARK  153  A    between atoms: _387  and  _388
REMARK  154  A    between atoms: _390  and  _392
REMARK  155  A    between atoms: _392  and  _393
REMARK  156  A    between atoms: _392  and  _395
REMARK  157  A    between atoms: _395  and  _396
REMARK  158  A    between atoms: _399  and  _401
REMARK  159  A    between atoms: _401  and  _402
REMARK  160  A    between atoms: _401  and  _404
REMARK  161  A    between atoms: _404  and  _405
REMARK  162  A    between atoms: _408  and  _410
REMARK  163  A    between atoms: _410  and  _411
REMARK  164  A    between atoms: _410  and  _413
REMARK  165  A    between atoms: _413  and  _414
REMARK  166  A    between atoms: _416  and  _418
REMARK  167  A    between atoms: _418  and  _419
REMARK  168  A    between atoms: _418  and  _421
REMARK  169  A    between atoms: _421  and  _422
REMARK  170  A    between atoms: _427  and  _428
REMARK  171  A    between atoms: _430  and  _432
REMARK  172  A    between atoms: _432  and  _433
REMARK  173  A    between atoms: _432  and  _435
REMARK  174  A    between atoms: _435  and  _436
REMARK  175  A    between atoms: _439  and  _441
REMARK  176  A    between atoms: _441  and  _442
REMARK  177  A    between atoms: _441  and  _444
REMARK  178  A    between atoms: _444  and  _445
REMARK  179  A    between atoms: _448  and  _450
REMARK  180  A    between atoms: _450  and  _451
REMARK  181  A    between atoms: _450  and  _453
REMARK  182  A    between atoms: _453  and  _454
REMARK  183  A    between atoms: _457  and  _458
REMARK  184  A    between atoms: _463  and  _465
REMARK  185  A    between atoms: _465  and  _466
REMARK  186  A    between atoms: _469  and  _471
REMARK  187  A    between atoms: _471  and  _472
REMARK  188  A    between atoms: _471  and  _474
REMARK  189  A    between atoms: _474  and  _475
REMARK  190  A    between atoms: _480  and  _481
REMARK  191  A    between atoms: _483  and  _485
REMARK  192  A    between atoms: _485  and  _486
REMARK  193  A    between atoms: _485  and  _488
REMARK  194  A    between atoms: _488  and  _489
REMARK  195  A    between atoms: _494  and  _496
REMARK  196  A    between atoms: _496  and  _497
REMARK  197  A    between atoms: _496  and  _499
REMARK  198  A    between atoms: _499  and  _500
REMARK  199  A    between atoms: _503  and  _505
REMARK  200  A    between atoms: _505  and  _506
REMARK  201  A    between atoms: _505  and  _508
REMARK  202  A    between atoms: _508  and  _509
REMARK  203  A    between atoms: _509  and  _510
REMARK  204  A    between atoms: _515  and  _517
REMARK  205  A    between atoms: _517  and  _518
REMARK  206  A    between atoms: _517  and  _520
REMARK  207  A    between atoms: _520  and  _521
REMARK  208  A    between atoms: _521  and  _522
REMARK  209  A    between atoms: _525  and  _527
REMARK  210  A    between atoms: _527  and  _528
REMARK  211  A    between atoms: _527  and  _530
REMARK  212  A    between atoms: _530  and  _531
REMARK  213  A    between atoms: _535  and  _536
REMARK  214  A    between atoms: _541  and  _543
REMARK  215  A    between atoms: _543  and  _544
REMARK  216  A    between atoms: _543  and  _546
REMARK  217  A    between atoms: _546  and  _547
REMARK  218  A    between atoms: _550  and  _552
REMARK  219  A    between atoms: _552  and  _553
REMARK  220  A    between atoms: _555  and  _557
REMARK  221  A    between atoms: _557  and  _558
REMARK  222  A    between atoms: _557  and  _560
REMARK  223  A    between atoms: _560  and  _561
REMARK  224  A    between atoms: _566  and  _568
REMARK  225  A    between atoms: _568  and  _569
REMARK  226  A    between atoms: _568  and  _571
REMARK  227  A    between atoms: _571  and  _572
REMARK  228  A    between atoms: _582  and  _584
REMARK  229  A    between atoms: _584  and  _585
REMARK  230  A    between atoms: _584  and  _587
REMARK  231  A    between atoms: _587  and  _588
REMARK  232  A    between atoms: _588  and  _589
REMARK  233  A    between atoms: _591  and  _593
REMARK  234  A    between atoms: _593  and  _594
REMARK  235  A    between atoms: _593  and  _596
REMARK  236  A    between atoms: _596  and  _597
REMARK  237  A    between atoms: _602  and  _603
REMARK                            x       y       z     vdW  Elec       q    Type
REMARK                         _______ _______ _______ _____ _____    ______ ____
ROOT
ATOM      1  CB  GLN A   1       3.834  53.725 118.701  0.00  0.00    +0.035 C 
ENDROOT
BRANCH   1   2
ATOM      2  CA  GLN A   1       2.630  53.927 119.632  0.00  0.00    +0.134 C 
BRANCH   2   3
ATOM      3  N   GLN A   1       2.581  52.949 120.702  0.00  0.00    -0.239 NA
ATOM      4  H   GLN A   1       2.454  51.944 120.469  0.00  0.00    +0.142 HD
ENDBRANCH   2   3
BRANCH   2   5
ATOM      5  C   GLN A   1       1.362  53.823 118.796  0.00  0.00    +0.224 C 
ATOM      6  O   GLN A   1       0.944  52.732 118.404  0.00  0.00    -0.287 OA
ENDBRANCH   2   5
ENDBRANCH   1   2
BRANCH   1   7
ATOM      7  CG  GLN A   1       3.858  54.767 117.578  0.00  0.00    +0.087 C 
BRANCH   7   8
ATOM      8  CD  GLN A   1       4.878  54.485 116.487  0.00  0.00    +0.219 C 
ATOM      9  NE2 GLN A   1       5.774  55.439 116.258  0.00  0.00    -0.329 N 
ATOM     10 HE21 GLN A   1       5.758  56.313 116.821  0.00  0.00    +0.145 HD
ATOM     11 HE22 GLN A   1       6.491  55.312 115.515  0.00  0.00    +0.145 HD
ATOM     12  OE1 GLN A   1       4.853  53.429 115.847  0.00  0.00    -0.275 OA
ENDBRANCH   7   8
ENDBRANCH   1   7
TORSDOF 5
REMARK  Name = ../refined-set-2016/2qry/2qry_pocket.pdb
REMARK  237 active torsions:
REMARK  status: ('A' for Active; 'I' for Inactive)
REMARK    1  A    between atoms: _1  and  _3
REMARK    2  A    between atoms: _3  and  _4
REMARK    3  A    between atoms: _3  and  _6
REMARK    4  A    between atoms: _6  and  _7
REMARK    5  A    between atoms: _10  and  _12
REMARK    6  A    between atoms: _12  and  _13
REMARK    7  A    between atoms: _12  and  _15
REMARK    8  A    between atoms: _15  and  _16
REMARK    9  A    between atoms: _21  and  _22
REMARK   10  A    between atoms: _24  and  _26
REMARK   11  A    between atoms: _26  and  _27
REMARK   12  A    between atoms: _26  and  _29
REMARK   13  A    between atoms: _29  and  _30
REMARK   14  A    between atoms: _33  and  _35
REMARK   15  A    between atoms: _35  and  _36
REMARK   16  A    between atoms: _35  and  _38
REMARK   17  A    between atoms: _38  and  _39
REMARK   18  A    between atoms: _41  and  _43
REMARK   19  A    between atoms: _43  and  _44
REMARK   20  A    between atoms: _43  and  _46
REMARK   21  A    between atoms: _46  and  _47
REMARK   22  A    between atoms: _53  and  _55
REMARK   23  A    between atoms: _55  and  _56
REMARK   24  A    between atoms: _59  and  _61
REMARK   25  A    between atoms: _61  and  _62
REMARK   26  A    between atoms: _61  and  _64
REMARK   27  A    between atoms: _64  and  _65
REMARK   28  A    between atoms: _75  and  _77
REMARK   29  A    between atoms: _77  and  _78
REMARK   30  A    between atoms: _81  and  _82
REMARK   31  A    between atoms: _87  and  _89
REMARK   32  A    between atoms: _89  and  _90
REMARK   33  A    between atoms: _89  and  _92
REMARK   34  A    between atoms: _92  and  _93
REMARK   35  A    between atoms: _93  and  _94
REMARK   36  A    between atoms: _97  and  _99
REMARK   37  A    between atoms: _99  and  _100
REMARK   38  A    between atoms: _99  and  _102
REMARK   39  A    between atoms: _102  and  _103
REMARK   40  A    between atoms: _106  and  _108
REMARK   41  A    between atoms: _108  and  _109
REMARK   42  A    between atoms: _111  and  _113
REMARK   43  A    between atoms: _113  and  _114
REMARK   44  A    between atoms: _113  and  _116
REMARK   45  A    between atoms: _119  and  _121
REMARK   46  A    between atoms: _121  and  _122
REMARK   47  A    between atoms: _121  and  _124
REMARK   48  A    between atoms: _124  and  _125
REMARK   49  A    between atoms: _127  and  _129
REMARK   50  A    between atoms: _129  and  _130
REMARK   51  A    between atoms: _129  and  _132
REMARK   52  A    between atoms: _132  and  _133
REMARK   53  A    between atoms: _136  and  _138
REMARK   54  A    between atoms: _138  and  _139
REMARK   55  A    between atoms: _141  and  _143
REMARK   56  A    between atoms: _143  and  _144
REMARK   57  A    between atoms: _143  and  _146
REMARK   58  A    between atoms: _146  and  _147
REMARK   59  A    between atoms: _150  and  _152
REMARK   60  A    between atoms: _152  and  _153
REMARK   61  A    between atoms: _152  and  _155
REMARK   62  A    between atoms: _155  and  _156
REMARK   63  A    between atoms: _159  and  _161
REMARK   64  A    between atoms: _161  and  _162
REMARK   65  A    between atoms: _161  and  _164
REMARK   66  A    between atoms: _164  and  _165
REMARK   67  A    between atoms: _171  and  _173
REMARK   68  A    between atoms: _173  and  _174
REMARK   69  A    between atoms: _173  and  _176
REMARK   70  A    between atoms: _176  and  _177
REMARK   71  A    between atoms: _180  and  _182
REMARK   72  A    between atoms: _182  and  _183
REMARK   73  A    between atoms: _182  and  _185
REMARK   74  A    between atoms: _185  and  _186
REMARK   75  A    between atoms: _191  and  _192
REMARK   76  A    between atoms: _194  and  _196
REMARK   77  A    between atoms: _196  and  _197
REMARK   78  A    between atoms: _199  and  _201
REMARK   79  A    between atoms: _201  and  _202
REMARK   80  A    between atoms: _201  and  _204
REMARK   81  A    between atoms: _204  and  _205
REMARK   82  A    between atoms: _211  and  _213
REMARK   83  A    between atoms: _213  and  _214
REMARK   84  A    between atoms: _213  and  _216
REMARK   85  A    between atoms: _219  and  _221
REMARK   86  A    between atoms: _221  and  _222
REMARK   87  A    between atoms: _221  and  _224
REMARK   88  A    between atoms: _224  and  _225
REMARK   89  A    between atoms: _225  and  _226
REMARK   90  A    between atoms: _231  and  _233
REMARK   91  A    between atoms: _233  and  _234
REMARK   92  A    between atoms: _233  and  _236
REMARK   93  A    between atoms: _236  and  _237
REMARK   94  A    between atoms: _240  and  _242
REMARK   95  A    between atoms: _242  and  _243
REMARK   96  A    between atoms: _242  and  _245
REMARK   97  A    between atoms: _245  and  _246
REMARK   98  A    between atoms: _246  and  _247
REMARK   99  A    between atoms: _247  and  _248
REMARK  100  A    between atoms: _257  and  _259
REMARK  101  A    between atoms: _259  and  _260
REMARK  102  A    between atoms: _259  and  _262
REMARK  103  A    between atoms: _262  and  _263
REMARK  104  A    between atoms: _266  and  _268
REMARK  105  A    between atoms: _268  and  _269
REMARK  106  A    between atoms: _268  and  _271
REMARK  107  A    between atoms: _271  and  _272
REMARK  108  A    between atoms: _274  and  _276
REMARK  109  A    between atoms: _276  and  _277
REMARK  110  A    between atoms: _276  and  _279
REMARK  111  A    between atoms: _279  and  _280
REMARK  112  A    between atoms: _284  and  _285
REMARK  113  A    between atoms: _290  and  _292
REMARK  114  A    between atoms: _292  and  _293
REMARK  115  A    between atoms: _295  and  _297
REMARK  116  A    between atoms: _297  and  _298
REMARK  117  A    between atoms: _297  and  _300
REMARK  118  A    between atoms: _300  and  _301
REMARK  119  A    between atoms: _304  and  _306
REMARK  120  A    between atoms: _306  and  _307
REMARK  121  A    between atoms: _309  and  _311
REMARK  122  A    between atoms: _311  and  _312
REMARK  123  A    between atoms: _311  and  _314
REMARK  124  A    between atoms: _314  and  _315
REMARK  125  A    between atoms: _318  and  _320
REMARK  126  A    between atoms: _320  and  _321
REMARK  127  A    between atoms: _320  and  _323
REMARK  128  A    between atoms: _323  and  _324
REMARK  129  A    between atoms: _324  and  _325
REMARK  130  A    between atoms: _325  and  _326
REMARK  131  A    between atoms: _326  and  _327
REMARK  132  A    between atoms: _331  and  _333
REMARK  133  A    between atoms: _333  and  _334
REMARK  134  A    between atoms: _336  and  _338
REMARK  135  A    between atoms: _338  and  _339
REMARK  136  A    between atoms: _338  and  _341
REMARK  137  A    between atoms: _341  and  _342
REMARK  138  A    between atoms: _352  and  _354
REMARK  139  A    between atoms: _354  and  _355
REMARK  140  A    between atoms: _354  and  _357
REMARK  141  A    between atoms: _357  and  _358
REMARK  142  A    between atoms: _360  and  _362
REMARK  143  A    between atoms: _362  and  _363
REMARK  144  A    between atoms: _362  and  _365
REMARK  145  A    between atoms: _365  and  _366
REMARK  146  A    between atoms: _366  and  _367
REMARK  147  A    between atoms: _370  and  _372
REMARK  148  A    between atoms: _372  and  _373
REMARK  149  A    between atoms: _376  and  _378
REMARK  150  A    between atoms: _378  and  _379
REMARK  151  A    between atoms: _378  and  _381
REMARK  152  A    between atoms: _381  and  _382
REMARK  153  A    between atoms: _387  and  _388
REMARK  154  A    between atoms: _390  and  _392
REMARK  155  A    between atoms: _392  and  _393
REMARK  156  A    between atoms: _392  and  _395
REMARK  157  A    between atoms: _395  and  _396
REMARK  158  A    between atoms: _399  and  _401
REMARK  159  A    between atoms: _401  and  _402
REMARK  160  A    between atoms: _401  and  _404
REMARK  161  A    between atoms: _404  and  _405
REMARK  162  A    between atoms: _408  and  _410
REMARK  163  A    between atoms: _410  and  _411
REMARK  164  A    between atoms: _410  and  _413
REMARK  165  A    between atoms: _413  and  _414
REMARK  166  A    between atoms: _416  and  _418
REMARK  167  A    between atoms: _418  and  _419
REMARK  168  A    between atoms: _418  and  _421
REMARK  169  A    between atoms: _421  and  _422
REMARK  170  A    between atoms: _427  and  _428
REMARK  171  A    between atoms: _430  and  _432
REMARK  172  A    between atoms: _432  and  _433
REMARK  173  A    between atoms: _432  and  _435
REMARK  174  A    between atoms: _435  and  _436
REMARK  175  A    between atoms: _439  and  _441
REMARK  176  A    between atoms: _441  and  _442
REMARK  177  A    between atoms: _441  and  _444
REMARK  178  A    between atoms: _444  and  _445
REMARK  179  A    between atoms: _448  and  _450
REMARK  180  A    between atoms: _450  and  _451
REMARK  181  A    between atoms: _450  and  _453
REMARK  182  A    between atoms: _453  and  _454
REMARK  183  A    between atoms: _457  and  _458
REMARK  184  A    between atoms: _463  and  _465
REMARK  185  A    between atoms: _465  and  _466
REMARK  186  A    between atoms: _469  and  _471
REMARK  187  A    between atoms: _471  and  _472
REMARK  188  A    between atoms: _471  and  _474
REMARK  189  A    between atoms: _474  and  _475
REMARK  190  A    between atoms: _480  and  _481
REMARK  191  A    between atoms: _483  and  _485
REMARK  192  A    between atoms: _485  and  _486
REMARK  193  A    between atoms: _485  and  _488
REMARK  194  A    between atoms: _488  and  _489
REMARK  195  A    between atoms: _494  and  _496
REMARK  196  A    between atoms: _496  and  _497
REMARK  197  A    between atoms: _496  and  _499
REMARK  198  A    between atoms: _499  and  _500
REMARK  199  A    between atoms: _503  and  _505
REMARK  200  A    between atoms: _505  and  _506
REMARK  201  A    between atoms: _505  and  _508
REMARK  202  A    between atoms: _508  and  _509
REMARK  203  A    between atoms: _509  and  _510
REMARK  204  A    between atoms: _515  and  _517
REMARK  205  A    between atoms: _517  and  _518
REMARK  206  A    between atoms: _517  and  _520
REMARK  207  A    between atoms: _520  and  _521
REMARK  208  A    between atoms: _521  and  _522
REMARK  209  A    between atoms: _525  and  _527
REMARK  210  A    between atoms: _527  and  _528
REMARK  211  A    between atoms: _527  and  _530
REMARK  212  A    between atoms: _530  and  _531
REMARK  213  A    between atoms: _535  and  _536
REMARK  214  A    between atoms: _541  and  _543
REMARK  215  A    between atoms: _543  and  _544
REMARK  216  A    between atoms: _543  and  _546
REMARK  217  A    between atoms: _546  and  _547
REMARK  218  A    between atoms: _550  and  _552
REMARK  219  A    between atoms: _552  and  _553
REMARK  220  A    between atoms: _555  and  _557
REMARK  221  A    between atoms: _557  and  _558
REMARK  222  A    between atoms: _557  and  _560
REMARK  223  A    between atoms: _560  and  _561
REMARK  224  A    between atoms: _566  and  _568
REMARK  225  A    between atoms: _568  and  _569
REMARK  226  A    between atoms: _568  and  _571
REMARK  227  A    between atoms: _571  and  _572
REMARK  228  A    between atoms: _582  and  _584
REMARK  229  A    between atoms: _584  and  _585
REMARK  230  A    between atoms: _584  and  _587
REMARK  231  A    between atoms: _587  and  _588
REMARK  232  A    between atoms: _588  and  _589
REMARK  233  A    between atoms: _591  and  _593
REMARK  234  A    between atoms: _593  and  _594
REMARK  235  A    between atoms: _593  and  _596
REMARK  236  A    between atoms: _596  and  _597
REMARK  237  A    between atoms: _602  and  _603
REMARK                            x       y       z     vdW  Elec       q    Type
REMARK                         _______ _______ _______ _____ _____    ______ ____
ROOT
ATOM      1  CA  GLU A   1       0.553  56.484 114.339  0.00  0.00    +0.134 C 
ENDROOT
BRANCH   1   2
ATOM      2  N   GLU A   1       0.170  55.580 115.416  0.00  0.00    -0.239 NA
ATOM      3  H   GLU A   1       0.052  54.565 115.223  0.00  0.00    +0.142 HD
ENDBRANCH   1   2
BRANCH   1   4
ATOM      4  C   GLU A   1      -0.685  57.221 113.868  0.00  0.00    +0.224 C 
ATOM      5  O   GLU A   1      -1.782  56.672 113.883  0.00  0.00    -0.287 OA
ENDBRANCH   1   4
BRANCH   1   6
ATOM      6  CB  GLU A   1       1.178  55.706 113.181  0.00  0.00    +0.037 C 
BRANCH   6   7
ATOM      7  CG  GLU A   1       2.336  54.830 113.598  0.00  0.00    +0.116 C 
BRANCH   7   8
ATOM      8  CD  GLU A   1       3.167  54.382 112.420  0.00  0.00    +0.365 C 
ATOM      9  OE2 GLU A   1       4.149  55.086 112.082  0.00  0.00    -0.246 OA
ATOM     10  OE1 GLU A   1       2.828  53.335 111.824  0.00  0.00    -0.246 OA
ENDBRANCH   7   8
ENDBRANCH   6   7
ENDBRANCH   1   6
TORSDOF 5
REMARK  Name = ../refined-set-2016/2qry/2qry_pocket.pdb
REMARK  237 active torsions:
REMARK  status: ('A' for Active; 'I' for Inactive)
REMARK    1  A    between atoms: _1  and  _3
REMARK    2  A    between atoms: _3  and  _4
REMARK    3  A    between atoms: _3  and  _6
REMARK    4  A    between atoms: _6  and  _7
REMARK    5  A    between atoms: _10  and  _12
REMARK    6  A    between atoms: _12  and  _13
REMARK    7  A    between atoms: _12  and  _15
REMARK    8  A    between atoms: _15  and  _16
REMARK    9  A    between atoms: _21  and  _22
REMARK   10  A    between atoms: _24  and  _26
REMARK   11  A    between atoms: _26  and  _27
REMARK   12  A    between atoms: _26  and  _29
REMARK   13  A    between atoms: _29  and  _30
REMARK   14  A    between atoms: _33  and  _35
REMARK   15  A    between atoms: _35  and  _36
REMARK   16  A    between atoms: _35  and  _38
REMARK   17  A    between atoms: _38  and  _39
REMARK   18  A    between atoms: _41  and  _43
REMARK   19  A    between atoms: _43  and  _44
REMARK   20  A    between atoms: _43  and  _46
REMARK   21  A    between atoms: _46  and  _47
REMARK   22  A    between atoms: _53  and  _55
REMARK   23  A    between atoms: _55  and  _56
REMARK   24  A    between atoms: _59  and  _61
REMARK   25  A    between atoms: _61  and  _62
REMARK   26  A    between atoms: _61  and  _64
REMARK   27  A    between atoms: _64  and  _65
REMARK   28  A    between atoms: _75  and  _77
REMARK   29  A    between atoms: _77  and  _78
REMARK   30  A    between atoms: _81  and  _82
REMARK   31  A    between atoms: _87  and  _89
REMARK   32  A    between atoms: _89  and  _90
REMARK   33  A    between atoms: _89  and  _92
REMARK   34  A    between atoms: _92  and  _93
REMARK   35  A    between atoms: _93  and  _94
REMARK   36  A    between atoms: _97  and  _99
REMARK   37  A    between atoms: _99  and  _100
REMARK   38  A    between atoms: _99  and  _102
REMARK   39  A    between atoms: _102  and  _103
REMARK   40  A    between atoms: _106  and  _108
REMARK   41  A    between atoms: _108  and  _109
REMARK   42  A    between atoms: _111  and  _113
REMARK   43  A    between atoms: _113  and  _114
REMARK   44  A    between atoms: _113  and  _116
REMARK   45  A    between atoms: _119  and  _121
REMARK   46  A    between atoms: _121  and  _122
REMARK   47  A    between atoms: _121  and  _124
REMARK   48  A    between atoms: _124  and  _125
REMARK   49  A    between atoms: _127  and  _129
REMARK   50  A    between atoms: _129  and  _130
REMARK   51  A    between atoms: _129  and  _132
REMARK   52  A    between atoms: _132  and  _133
REMARK   53  A    between atoms: _136  and  _138
REMARK   54  A    between atoms: _138  and  _139
REMARK   55  A    between atoms: _141  and  _143
REMARK   56  A    between atoms: _143  and  _144
REMARK   57  A    between atoms: _143  and  _146
REMARK   58  A    between atoms: _146  and  _147
REMARK   59  A    between atoms: _150  and  _152
REMARK   60  A    between atoms: _152  and  _153
REMARK   61  A    between atoms: _152  and  _155
REMARK   62  A    between atoms: _155  and  _156
REMARK   63  A    between atoms: _159  and  _161
REMARK   64  A    between atoms: _161  and  _162
REMARK   65  A    between atoms: _161  and  _164
REMARK   66  A    between atoms: _164  and  _165
REMARK   67  A    between atoms: _171  and  _173
REMARK   68  A    between atoms: _173  and  _174
REMARK   69  A    between atoms: _173  and  _176
REMARK   70  A    between atoms: _176  and  _177
REMARK   71  A    between atoms: _180  and  _182
REMARK   72  A    between atoms: _182  and  _183
REMARK   73  A    between atoms: _182  and  _185
REMARK   74  A    between atoms: _185  and  _186
REMARK   75  A    between atoms: _191  and  _192
REMARK   76  A    between atoms: _194  and  _196
REMARK   77  A    between atoms: _196  and  _197
REMARK   78  A    between atoms: _199  and  _201
REMARK   79  A    between atoms: _201  and  _202
REMARK   80  A    between atoms: _201  and  _204
REMARK   81  A    between atoms: _204  and  _205
REMARK   82  A    between atoms: _211  and  _213
REMARK   83  A    between atoms: _213  and  _214
REMARK   84  A    between atoms: _213  and  _216
REMARK   85  A    between atoms: _219  and  _221
REMARK   86  A    between atoms: _221  and  _222
REMARK   87  A    between atoms: _221  and  _224
REMARK   88  A    between atoms: _224  and  _225
REMARK   89  A    between atoms: _225  and  _226
REMARK   90  A    between atoms: _231  and  _233
REMARK   91  A    between atoms: _233  and  _234
REMARK   92  A    between atoms: _233  and  _236
REMARK   93  A    between atoms: _236  and  _237
REMARK   94  A    between atoms: _240  and  _242
REMARK   95  A    between atoms: _242  and  _243
REMARK   96  A    between atoms: _242  and  _245
REMARK   97  A    between atoms: _245  and  _246
REMARK   98  A    between atoms: _246  and  _247
REMARK   99  A    between atoms: _247  and  _248
REMARK  100  A    between atoms: _257  and  _259
REMARK  101  A    between atoms: _259  and  _260
REMARK  102  A    between atoms: _259  and  _262
REMARK  103  A    between atoms: _262  and  _263
REMARK  104  A    between atoms: _266  and  _268
REMARK  105  A    between atoms: _268  and  _269
REMARK  106  A    between atoms: _268  and  _271
REMARK  107  A    between atoms: _271  and  _272
REMARK  108  A    between atoms: _274  and  _276
REMARK  109  A    between atoms: _276  and  _277
REMARK  110  A    between atoms: _276  and  _279
REMARK  111  A    between atoms: _279  and  _280
REMARK  112  A    between atoms: _284  and  _285
REMARK  113  A    between atoms: _290  and  _292
REMARK  114  A    between atoms: _292  and  _293
REMARK  115  A    between atoms: _295  and  _297
REMARK  116  A    between atoms: _297  and  _298
REMARK  117  A    between atoms: _297  and  _300
REMARK  118  A    between atoms: _300  and  _301
REMARK  119  A    between atoms: _304  and  _306
REMARK  120  A    between atoms: _306  and  _307
REMARK  121  A    between atoms: _309  and  _311
REMARK  122  A    between atoms: _311  and  _312
REMARK  123  A    between atoms: _311  and  _314
REMARK  124  A    between atoms: _314  and  _315
REMARK  125  A    between atoms: _318  and  _320
REMARK  126  A    between atoms: _320  and  _321
REMARK  127  A    between atoms: _320  and  _323
REMARK  128  A    between atoms: _323  and  _324
REMARK  129  A    between atoms: _324  and  _325
REMARK  130  A    between atoms: _325  and  _326
REMARK  131  A    between atoms: _326  and  _327
REMARK  132  A    between atoms: _331  and  _333
REMARK  133  A    between atoms: _333  and  _334
REMARK  134  A    between atoms: _336  and  _338
REMARK  135  A    between atoms: _338  and  _339
REMARK  136  A    between atoms: _338  and  _341
REMARK  137  A    between atoms: _341  and  _342
REMARK  138  A    between atoms: _352  and  _354
REMARK  139  A    between atoms: _354  and  _355
REMARK  140  A    between atoms: _354  and  _357
REMARK  141  A    between atoms: _357  and  _358
REMARK  142  A    between atoms: _360  and  _362
REMARK  143  A    between atoms: _362  and  _363
REMARK  144  A    between atoms: _362  and  _365
REMARK  145  A    between atoms: _365  and  _366
REMARK  146  A    between atoms: _366  and  _367
REMARK  147  A    between atoms: _370  and  _372
REMARK  148  A    between atoms: _372  and  _373
REMARK  149  A    between atoms: _376  and  _378
REMARK  150  A    between atoms: _378  and  _379
REMARK  151  A    between atoms: _378  and  _381
REMARK  152  A    between atoms: _381  and  _382
REMARK  153  A    between atoms: _387  and  _388
REMARK  154  A    between atoms: _390  and  _392
REMARK  155  A    between atoms: _392  and  _393
REMARK  156  A    between atoms: _392  and  _395
REMARK  157  A    between atoms: _395  and  _396
REMARK  158  A    between atoms: _399  and  _401
REMARK  159  A    between atoms: _401  and  _402
REMARK  160  A    between atoms: _401  and  _404
REMARK  161  A    between atoms: _404  and  _405
REMARK  162  A    between atoms: _408  and  _410
REMARK  163  A    between atoms: _410  and  _411
REMARK  164  A    between atoms: _410  and  _413
REMARK  165  A    between atoms: _413  and  _414
REMARK  166  A    between atoms: _416  and  _418
REMARK  167  A    between atoms: _418  and  _419
REMARK  168  A    between atoms: _418  and  _421
REMARK  169  A    between atoms: _421  and  _422
REMARK  170  A    between atoms: _427  and  _428
REMARK  171  A    between atoms: _430  and  _432
REMARK  172  A    between atoms: _432  and  _433
REMARK  173  A    between atoms: _432  and  _435
REMARK  174  A    between atoms: _435  and  _436
REMARK  175  A    between atoms: _439  and  _441
REMARK  176  A    between atoms: _441  and  _442
REMARK  177  A    between atoms: _441  and  _444
REMARK  178  A    between atoms: _444  and  _445
REMARK  179  A    between atoms: _448  and  _450
REMARK  180  A    between atoms: _450  and  _451
REMARK  181  A    between atoms: _450  and  _453
REMARK  182  A    between atoms: _453  and  _454
REMARK  183  A    between atoms: _457  and  _458
REMARK  184  A    between atoms: _463  and  _465
REMARK  185  A    between atoms: _465  and  _466
REMARK  186  A    between atoms: _469  and  _471
REMARK  187  A    between atoms: _471  and  _472
REMARK  188  A    between atoms: _471  and  _474
REMARK  189  A    between atoms: _474  and  _475
REMARK  190  A    between atoms: _480  and  _481
REMARK  191  A    between atoms: _483  and  _485
REMARK  192  A    between atoms: _485  and  _486
REMARK  193  A    between atoms: _485  and  _488
REMARK  194  A    between atoms: _488  and  _489
REMARK  195  A    between atoms: _494  and  _496
REMARK  196  A    between atoms: _496  and  _497
REMARK  197  A    between atoms: _496  and  _499
REMARK  198  A    between atoms: _499  and  _500
REMARK  199  A    between atoms: _503  and  _505
REMARK  200  A    between atoms: _505  and  _506
REMARK  201  A    between atoms: _505  and  _508
REMARK  202  A    between atoms: _508  and  _509
REMARK  203  A    between atoms: _509  and  _510
REMARK  204  A    between atoms: _515  and  _517
REMARK  205  A    between atoms: _517  and  _518
REMARK  206  A    between atoms: _517  and  _520
REMARK  207  A    between atoms: _520  and  _521
REMARK  208  A    between atoms: _521  and  _522
REMARK  209  A    between atoms: _525  and  _527
REMARK  210  A    between atoms: _527  and  _528
REMARK  211  A    between atoms: _527  and  _530
REMARK  212  A    between atoms: _530  and  _531
REMARK  213  A    between atoms: _535  and  _536
REMARK  214  A    between atoms: _541  and  _543
REMARK  215  A    between atoms: _543  and  _544
REMARK  216  A    between atoms: _543  and  _546
REMARK  217  A    between atoms: _546  and  _547
REMARK  218  A    between atoms: _550  and  _552
REMARK  219  A    between atoms: _552  and  _553
REMARK  220  A    between atoms: _555  and  _557
REMARK  221  A    between atoms: _557  and  _558
REMARK  222  A    between atoms: _557  and  _560
REMARK  223  A    between atoms: _560  and  _561
REMARK  224  A    between atoms: _566  and  _568
REMARK  225  A    between atoms: _568  and  _569
REMARK  226  A    between atoms: _568  and  _571
REMARK  227  A    between atoms: _571  and  _572
REMARK  228  A    between atoms: _582  and  _584
REMARK  229  A    between atoms: _584  and  _585
REMARK  230  A    between atoms: _584  and  _587
REMARK  231  A    between atoms: _587  and  _588
REMARK  232  A    between atoms: _588  and  _589
REMARK  233  A    between atoms: _591  and  _593
REMARK  234  A    between atoms: _593  and  _594
REMARK  235  A    between atoms: _593  and  _596
REMARK  236  A    between atoms: _596  and  _597
REMARK  237  A    between atoms: _602  and  _603
REMARK                            x       y       z     vdW  Elec       q    Type
REMARK                         _______ _______ _______ _____ _____    ______ ____
ROOT
ATOM      1  C   ASN A   5       3.797  47.427 108.924  0.00  0.00    +0.000 C 
ATOM      2  O   ASN A   5       4.568  47.843 109.786  0.00  0.00    +0.000 OA
ATOM      3  N   TRP A   6       3.247  46.217 108.977  0.00  0.00    +0.000 N 
ATOM      4  H   TRP A   6       2.600  45.918 108.220  0.00  0.00    +0.000 HD
ENDROOT
BRANCH   3   5
ATOM      5  CA  TRP A   6       3.533  45.302 110.075  0.00  0.00    +0.000 C 
BRANCH   5   6
ATOM      6  C   TRP A   6       3.249  45.965 111.424  0.00  0.00    +0.000 C 
ATOM      7  O   TRP A   6       4.126  46.144 112.267  0.00  0.00    +0.000 OA
ATOM      8  N   UNK A   7       1.989  46.330 111.596  0.00  0.00    +0.000 N 
ATOM      9  H   UNK A   7       1.315  46.139 110.827  0.00  0.00    +0.000 HD
BRANCH   8  10
ATOM     10  C   UNK A   7       1.490  46.983 112.796  0.00  0.00    +0.000 C 
BRANCH  10  11
ATOM     11  C   UNK A   7       0.044  46.517 112.953  0.00  0.00    +0.000 C 
ATOM     12  N   TYR A   8      -0.555  46.763 114.114  0.00  0.00    +0.000 N 
ATOM     13  H   TYR A   8      -0.029  47.240 114.873  0.00  0.00    +0.000 HD
ATOM     14  O   UNK A   7      -0.524  45.942 112.023  0.00  0.00    +0.000 OA
BRANCH  12  15
ATOM     15  CA  TYR A   8      -1.946  46.370 114.335  0.00  0.00    +0.000 C 
BRANCH  15  16
ATOM     16  C   TYR A   8      -2.866  47.444 113.755  0.00  0.00    +0.000 C 
ATOM     17  O   TYR A   8      -2.688  48.634 114.018  0.00  0.00    +0.000 OA
ENDBRANCH  15  16
BRANCH  15  18
ATOM     18  CB  TYR A   8      -2.229  46.194 115.831  0.00  0.00    +0.000 C 
BRANCH  18  19
ATOM     19  CG  TYR A   8      -1.478  45.044 116.457  0.00  0.00    +0.000 A 
ATOM     20  CD2 TYR A   8      -0.413  45.275 117.326  0.00  0.00    +0.000 A 
ATOM     21  CE2 TYR A   8       0.299  44.218 117.891  0.00  0.00    +0.000 A 
ATOM     22  CZ  TYR A   8      -0.056  42.913 117.582  0.00  0.00    +0.000 A 
ATOM     23  CE1 TYR A   8      -1.111  42.658 116.722  0.00  0.00    +0.000 A 
ATOM     24  CD1 TYR A   8      -1.816  43.723 116.165  0.00  0.00    +0.000 A 
BRANCH  22  25
ATOM     25  OH  TYR A   8       0.653  41.872 118.127  0.00  0.00    +0.000 OA
ATOM     26  HH  TYR A   8       0.275  41.014 117.808  0.00  0.00    +0.000 HD
ENDBRANCH  22  25
ENDBRANCH  18  19
ENDBRANCH  15  18
ENDBRANCH  12  15
ENDBRANCH  10  11
BRANCH  10  27
ATOM     27  C   UNK A   7       1.513  48.506 112.602  0.00  0.00    +0.000 C 
BRANCH  27  28
ATOM     28  C   UNK A   7       2.896  49.125 112.484  0.00  0.00    +0.000 C 
BRANCH  28  29
ATOM     29 SE   UNK A   7       3.841  49.127 114.174  0.00  0.00    +0.000 Se
ATOM     30  C   UNK A   7       3.074  50.745 114.942  0.00  0.00    +0.000 C 
ENDBRANCH  28  29
ENDBRANCH  27  28
ENDBRANCH  10  27
ENDBRANCH   8  10
ENDBRANCH   5   6
BRANCH   5  31
ATOM     31  CB  TRP A   6       4.984  44.824 109.974  0.00  0.00    +0.000 C 
BRANCH  31  32
ATOM     32  CG  TRP A   6       5.220  44.155 108.661  0.00  0.00    +0.000 A 
ATOM     33  CD2 TRP A   6       4.751  42.859 108.271  0.00  0.00    +0.000 A 
ATOM     34  CE3 TRP A   6       4.079  41.827 108.941  0.00  0.00    +0.000 A 
ATOM     35  CZ3 TRP A   6       3.758  40.670 108.239  0.00  0.00    +0.000 A 
ATOM     36  CH2 TRP A   6       4.098  40.531 106.879  0.00  0.00    +0.000 A 
ATOM     37  CZ2 TRP A   6       4.756  41.526 106.199  0.00  0.00    +0.000 A 
ATOM     38  CE2 TRP A   6       5.078  42.690 106.907  0.00  0.00    +0.000 A 
ATOM     39  NE1 TRP A   6       5.719  43.828 106.494  0.00  0.00    +0.000 N 
ATOM     40  HE1 TRP A   6       6.082  44.003 105.535  0.00  0.00    +0.000 HD
ATOM     41  CD1 TRP A   6       5.804  44.700 107.550  0.00  0.00    +0.000 A 
ENDBRANCH  31  32
ENDBRANCH   5  31
ENDBRANCH   3   5
BRANCH   1  42
ATOM     42  CA  ASN A   5       3.422  48.312 107.738  0.00  0.00    +0.000 C 
BRANCH  42  44
ATOM     43  C   GLY A   4       3.244  47.187 105.570  0.00  0.00    +0.000 C 
ATOM     44  N   ASN A   5       2.683  47.580 106.712  0.00  0.00    +0.000 N 
ATOM     45  H   ASN A   5       1.681  47.357 106.880  0.00  0.00    +0.000 HD
ATOM     46  O   GLY A   4       4.428  47.384 105.296  0.00  0.00    +0.000 OA
BRANCH  43  47
ATOM     47  CA  GLY A   4       2.340  46.454 104.596  0.00  0.00    +0.000 C 
BRANCH  47  49
ATOM     48  C   THR A   3       2.088  44.105 105.082  0.00  0.00    +0.000 C 
ATOM     49  N   GLY A   4       1.639  45.349 105.222  0.00  0.00    +0.000 N 
ATOM     50  H   GLY A   4       0.782  45.530 105.782  0.00  0.00    +0.000 HD
ATOM     51  O   THR A   3       3.091  43.832 104.428  0.00  0.00    +0.000 OA
BRANCH  48  52
ATOM     52  CA  THR A   3       1.301  43.006 105.789  0.00  0.00    +0.000 C 
BRANCH  52  55
ATOM     53  C   PRO A   2       0.267  43.735 107.858  0.00  0.00    +0.000 C 
ATOM     54  O   PRO A   2       1.324  43.607 108.466  0.00  0.00    +0.000 OA
ATOM     55  N   THR A   3       0.156  43.488 106.555  0.00  0.00    +0.000 N 
ATOM     56  H   THR A   3      -0.756  43.640 106.078  0.00  0.00    +0.000 HD
BRANCH  53  59
ATOM     57  C   ILE A   1      -0.869  46.473 107.731  0.00  0.00    +0.000 C 
ATOM     58  N   PRO A   2      -1.619  45.398 108.039  0.00  0.00    +0.000 N 
ATOM     59  CA  PRO A   2      -0.986  44.201 108.592  0.00  0.00    +0.000 C 
ATOM     60  CB  PRO A   2      -2.108  43.169 108.544  0.00  0.00    +0.000 C 
ATOM     61  CG  PRO A   2      -3.317  43.996 108.798  0.00  0.00    +0.000 C 
ATOM     62  CD  PRO A   2      -3.070  45.184 107.888  0.00  0.00    +0.000 C 
ATOM     63  O   ILE A   1       0.352  46.483 107.891  0.00  0.00    +0.000 OA
BRANCH  57  64
ATOM     64  CA  ILE A   1      -1.580  47.701 107.164  0.00  0.00    +0.000 C 
BRANCH  64  65
ATOM     65  N   ILE A   1      -2.467  47.410 106.046  0.00  0.00    +0.000 NA
ATOM     66  H   ILE A   1      -3.495  47.502 106.172  0.00  0.00    +0.000 HD
ENDBRANCH  64  65
BRANCH  64  67
ATOM     67  CB  ILE A   1      -2.333  48.413 108.318  0.00  0.00    +0.000 C 
ATOM     68  CG2 ILE A   1      -1.547  48.282 109.623  0.00  0.00    +0.000 C 
BRANCH  67  69
ATOM     69  CG1 ILE A   1      -2.527  49.897 107.980  0.00  0.00    +0.000 C 
ATOM     70  CD1 ILE A   1      -1.220  50.667 107.815  0.00  0.00    +0.000 C 
ENDBRANCH  67  69
ENDBRANCH  64  67
ENDBRANCH  57  64
ENDBRANCH  53  59
ENDBRANCH  52  55
BRANCH  52  71
ATOM     71  CB  THR A   3       0.867  41.949 104.749  0.00  0.00    +0.000 C 
ATOM     72  CG2 THR A   3       0.123  40.798 105.441  0.00  0.00    +0.000 C 
BRANCH  71  73
ATOM     73  OG1 THR A   3       0.004  42.550 103.777  0.00  0.00    +0.000 OA
ATOM     74  HG1 THR A   3      -0.798  42.913 104.229  0.00  0.00    +0.000 HD
ENDBRANCH  71  73
ENDBRANCH  52  71
ENDBRANCH  48  52
ENDBRANCH  47  49
ENDBRANCH  43  47
ENDBRANCH  42  44
BRANCH  42  75
ATOM     75  CB  ASN A   5       2.589  49.490 108.249  0.00  0.00    +0.000 C 
BRANCH  75  76
ATOM     76  CG  ASN A   5       3.409  50.774 108.412  0.00  0.00    +0.000 C 
ATOM     77  OD1 ASN A   5       3.090  51.634 109.243  0.00  0.00    +0.000 OA
ATOM     78  ND2 ASN A   5       4.450  50.916 107.604  0.00  0.00    +0.000 N 
ATOM     79 HD21 ASN A   5       5.034  51.775 107.654  0.00  0.00    +0.000 HD
ATOM     80 HD22 ASN A   5       4.683  50.168 106.920  0.00  0.00    +0.000 HD
ENDBRANCH  75  76
ENDBRANCH  42  75
ENDBRANCH   1  42
TORSDOF 29
REMARK  Name = ../refined-set-2016/2qry/2qry_pocket.pdb
REMARK  237 active torsions:
REMARK  status: ('A' for Active; 'I' for Inactive)
REMARK    1  A    between atoms: _1  and  _3
REMARK    2  A    between atoms: _3  and  _4
REMARK    3  A    between atoms: _3  and  _6
REMARK    4  A    between atoms: _6  and  _7
REMARK    5  A    between atoms: _10  and  _12
REMARK    6  A    between atoms: _12  and  _13
REMARK    7  A    between atoms: _12  and  _15
REMARK    8  A    between atoms: _15  and  _16
REMARK    9  A    between atoms: _21  and  _22
REMARK   10  A    between atoms: _24  and  _26
REMARK   11  A    between atoms: _26  and  _27
REMARK   12  A    between atoms: _26  and  _29
REMARK   13  A    between atoms: _29  and  _30
REMARK   14  A    between atoms: _33  and  _35
REMARK   15  A    between atoms: _35  and  _36
REMARK   16  A    between atoms: _35  and  _38
REMARK   17  A    between atoms: _38  and  _39
REMARK   18  A    between atoms: _41  and  _43
REMARK   19  A    between atoms: _43  and  _44
REMARK   20  A    between atoms: _43  and  _46
REMARK   21  A    between atoms: _46  and  _47
REMARK   22  A    between atoms: _53  and  _55
REMARK   23  A    between atoms: _55  and  _56
REMARK   24  A    between atoms: _59  and  _61
REMARK   25  A    between atoms: _61  and  _62
REMARK   26  A    between atoms: _61  and  _64
REMARK   27  A    between atoms: _64  and  _65
REMARK   28  A    between atoms: _75  and  _77
REMARK   29  A    between atoms: _77  and  _78
REMARK   30  A    between atoms: _81  and  _82
REMARK   31  A    between atoms: _87  and  _89
REMARK   32  A    between atoms: _89  and  _90
REMARK   33  A    between atoms: _89  and  _92
REMARK   34  A    between atoms: _92  and  _93
REMARK   35  A    between atoms: _93  and  _94
REMARK   36  A    between atoms: _97  and  _99
REMARK   37  A    between atoms: _99  and  _100
REMARK   38  A    between atoms: _99  and  _102
REMARK   39  A    between atoms: _102  and  _103
REMARK   40  A    between atoms: _106  and  _108
REMARK   41  A    between atoms: _108  and  _109
REMARK   42  A    between atoms: _111  and  _113
REMARK   43  A    between atoms: _113  and  _114
REMARK   44  A    between atoms: _113  and  _116
REMARK   45  A    between atoms: _119  and  _121
REMARK   46  A    between atoms: _121  and  _122
REMARK   47  A    between atoms: _121  and  _124
REMARK   48  A    between atoms: _124  and  _125
REMARK   49  A    between atoms: _127  and  _129
REMARK   50  A    between atoms: _129  and  _130
REMARK   51  A    between atoms: _129  and  _132
REMARK   52  A    between atoms: _132  and  _133
REMARK   53  A    between atoms: _136  and  _138
REMARK   54  A    between atoms: _138  and  _139
REMARK   55  A    between atoms: _141  and  _143
REMARK   56  A    between atoms: _143  and  _144
REMARK   57  A    between atoms: _143  and  _146
REMARK   58  A    between atoms: _146  and  _147
REMARK   59  A    between atoms: _150  and  _152
REMARK   60  A    between atoms: _152  and  _153
REMARK   61  A    between atoms: _152  and  _155
REMARK   62  A    between atoms: _155  and  _156
REMARK   63  A    between atoms: _159  and  _161
REMARK   64  A    between atoms: _161  and  _162
REMARK   65  A    between atoms: _161  and  _164
REMARK   66  A    between atoms: _164  and  _165
REMARK   67  A    between atoms: _171  and  _173
REMARK   68  A    between atoms: _173  and  _174
REMARK   69  A    between atoms: _173  and  _176
REMARK   70  A    between atoms: _176  and  _177
REMARK   71  A    between atoms: _180  and  _182
REMARK   72  A    between atoms: _182  and  _183
REMARK   73  A    between atoms: _182  and  _185
REMARK   74  A    between atoms: _185  and  _186
REMARK   75  A    between atoms: _191  and  _192
REMARK   76  A    between atoms: _194  and  _196
REMARK   77  A    between atoms: _196  and  _197
REMARK   78  A    between atoms: _199  and  _201
REMARK   79  A    between atoms: _201  and  _202
REMARK   80  A    between atoms: _201  and  _204
REMARK   81  A    between atoms: _204  and  _205
REMARK   82  A    between atoms: _211  and  _213
REMARK   83  A    between atoms: _213  and  _214
REMARK   84  A    between atoms: _213  and  _216
REMARK   85  A    between atoms: _219  and  _221
REMARK   86  A    between atoms: _221  and  _222
REMARK   87  A    between atoms: _221  and  _224
REMARK   88  A    between atoms: _224  and  _225
REMARK   89  A    between atoms: _225  and  _226
REMARK   90  A    between atoms: _231  and  _233
REMARK   91  A    between atoms: _233  and  _234
REMARK   92  A    between atoms: _233  and  _236
REMARK   93  A    between atoms: _236  and  _237
REMARK   94  A    between atoms: _240  and  _242
REMARK   95  A    between atoms: _242  and  _243
REMARK   96  A    between atoms: _242  and  _245
REMARK   97  A    between atoms: _245  and  _246
REMARK   98  A    between atoms: _246  and  _247
REMARK   99  A    between atoms: _247  and  _248
REMARK  100  A    between atoms: _257  and  _259
REMARK  101  A    between atoms: _259  and  _260
REMARK  102  A    between atoms: _259  and  _262
REMARK  103  A    between atoms: _262  and  _263
REMARK  104  A    between atoms: _266  and  _268
REMARK  105  A    between atoms: _268  and  _269
REMARK  106  A    between atoms: _268  and  _271
REMARK  107  A    between atoms: _271  and  _272
REMARK  108  A    between atoms: _274  and  _276
REMARK  109  A    between atoms: _276  and  _277
REMARK  110  A    between atoms: _276  and  _279
REMARK  111  A    between atoms: _279  and  _280
REMARK  112  A    between atoms: _284  and  _285
REMARK  113  A    between atoms: _290  and  _292
REMARK  114  A    between atoms: _292  and  _293
REMARK  115  A    between atoms: _295  and  _297
REMARK  116  A    between atoms: _297  and  _298
REMARK  117  A    between atoms: _297  and  _300
REMARK  118  A    between atoms: _300  and  _301
REMARK  119  A    between atoms: _304  and  _306
REMARK  120  A    between atoms: _306  and  _307
REMARK  121  A    between atoms: _309  and  _311
REMARK  122  A    between atoms: _311  and  _312
REMARK  123  A    between atoms: _311  and  _314
REMARK  124  A    between atoms: _314  and  _315
REMARK  125  A    between atoms: _318  and  _320
REMARK  126  A    between atoms: _320  and  _321
REMARK  127  A    between atoms: _320  and  _323
REMARK  128  A    between atoms: _323  and  _324
REMARK  129  A    between atoms: _324  and  _325
REMARK  130  A    between atoms: _325  and  _326
REMARK  131  A    between atoms: _326  and  _327
REMARK  132  A    between atoms: _331  and  _333
REMARK  133  A    between atoms: _333  and  _334
REMARK  134  A    between atoms: _336  and  _338
REMARK  135  A    between atoms: _338  and  _339
REMARK  136  A    between atoms: _338  and  _341
REMARK  137  A    between atoms: _341  and  _342
REMARK  138  A    between atoms: _352  and  _354
REMARK  139  A    between atoms: _354  and  _355
REMARK  140  A    between atoms: _354  and  _357
REMARK  141  A    between atoms: _357  and  _358
REMARK  142  A    between atoms: _360  and  _362
REMARK  143  A    between atoms: _362  and  _363
REMARK  144  A    between atoms: _362  and  _365
REMARK  145  A    between atoms: _365  and  _366
REMARK  146  A    between atoms: _366  and  _367
REMARK  147  A    between atoms: _370  and  _372
REMARK  148  A    between atoms: _372  and  _373
REMARK  149  A    between atoms: _376  and  _378
REMARK  150  A    between atoms: _378  and  _379
REMARK  151  A    between atoms: _378  and  _381
REMARK  152  A    between atoms: _381  and  _382
REMARK  153  A    between atoms: _387  and  _388
REMARK  154  A    between atoms: _390  and  _392
REMARK  155  A    between atoms: _392  and  _393
REMARK  156  A    between atoms: _392  and  _395
REMARK  157  A    between atoms: _395  and  _396
REMARK  158  A    between atoms: _399  and  _401
REMARK  159  A    between atoms: _401  and  _402
REMARK  160  A    between atoms: _401  and  _404
REMARK  161  A    between atoms: _404  and  _405
REMARK  162  A    between atoms: _408  and  _410
REMARK  163  A    between atoms: _410  and  _411
REMARK  164  A    between atoms: _410  and  _413
REMARK  165  A    between atoms: _413  and  _414
REMARK  166  A    between atoms: _416  and  _418
REMARK  167  A    between atoms: _418  and  _419
REMARK  168  A    between atoms: _418  and  _421
REMARK  169  A    between atoms: _421  and  _422
REMARK  170  A    between atoms: _427  and  _428
REMARK  171  A    between atoms: _430  and  _432
REMARK  172  A    between atoms: _432  and  _433
REMARK  173  A    between atoms: _432  and  _435
REMARK  174  A    between atoms: _435  and  _436
REMARK  175  A    between atoms: _439  and  _441
REMARK  176  A    between atoms: _441  and  _442
REMARK  177  A    between atoms: _441  and  _444
REMARK  178  A    between atoms: _444  and  _445
REMARK  179  A    between atoms: _448  and  _450
REMARK  180  A    between atoms: _450  and  _451
REMARK  181  A    between atoms: _450  and  _453
REMARK  182  A    between atoms: _453  and  _454
REMARK  183  A    between atoms: _457  and  _458
REMARK  184  A    between atoms: _463  and  _465
REMARK  185  A    between atoms: _465  and  _466
REMARK  186  A    between atoms: _469  and  _471
REMARK  187  A    between atoms: _471  and  _472
REMARK  188  A    between atoms: _471  and  _474
REMARK  189  A    between atoms: _474  and  _475
REMARK  190  A    between atoms: _480  and  _481
REMARK  191  A    between atoms: _483  and  _485
REMARK  192  A    between atoms: _485  and  _486
REMARK  193  A    between atoms: _485  and  _488
REMARK  194  A    between atoms: _488  and  _489
REMARK  195  A    between atoms: _494  and  _496
REMARK  196  A    between atoms: _496  and  _497
REMARK  197  A    between atoms: _496  and  _499
REMARK  198  A    between atoms: _499  and  _500
REMARK  199  A    between atoms: _503  and  _505
REMARK  200  A    between atoms: _505  and  _506
REMARK  201  A    between atoms: _505  and  _508
REMARK  202  A    between atoms: _508  and  _509
REMARK  203  A    between atoms: _509  and  _510
REMARK  204  A    between atoms: _515  and  _517
REMARK  205  A    between atoms: _517  and  _518
REMARK  206  A    between atoms: _517  and  _520
REMARK  207  A    between atoms: _520  and  _521
REMARK  208  A    between atoms: _521  and  _522
REMARK  209  A    between atoms: _525  and  _527
REMARK  210  A    between atoms: _527  and  _528
REMARK  211  A    between atoms: _527  and  _530
REMARK  212  A    between atoms: _530  and  _531
REMARK  213  A    between atoms: _535  and  _536
REMARK  214  A    between atoms: _541  and  _543
REMARK  215  A    between atoms: _543  and  _544
REMARK  216  A    between atoms: _543  and  _546
REMARK  217  A    between atoms: _546  and  _547
REMARK  218  A    between atoms: _550  and  _552
REMARK  219  A    between atoms: _552  and  _553
REMARK  220  A    between atoms: _555  and  _557
REMARK  221  A    between atoms: _557  and  _558
REMARK  222  A    between atoms: _557  and  _560
REMARK  223  A    between atoms: _560  and  _561
REMARK  224  A    between atoms: _566  and  _568
REMARK  225  A    between atoms: _568  and  _569
REMARK  226  A    between atoms: _568  and  _571
REMARK  227  A    between atoms: _571  and  _572
REMARK  228  A    between atoms: _582  and  _584
REMARK  229  A    between atoms: _584  and  _585
REMARK  230  A    between atoms: _584  and  _587
REMARK  231  A    between atoms: _587  and  _588
REMARK  232  A    between atoms: _588  and  _589
REMARK  233  A    between atoms: _591  and  _593
REMARK  234  A    between atoms: _593  and  _594
REMARK  235  A    between atoms: _593  and  _596
REMARK  236  A    between atoms: _596  and  _597
REMARK  237  A    between atoms: _602  and  _603
REMARK                            x       y       z     vdW  Elec       q    Type
REMARK                         _______ _______ _______ _____ _____    ______ ____
ROOT
ATOM      1  O   HOH     1       6.607  51.184 108.589  0.00  0.00    +0.000 OA
ENDROOT
TORSDOF 0
REMARK  Name = ../refined-set-2016/2qry/2qry_pocket.pdb
REMARK  237 active torsions:
REMARK  status: ('A' for Active; 'I' for Inactive)
REMARK    1  A    between atoms: _1  and  _3
REMARK    2  A    between atoms: _3  and  _4
REMARK    3  A    between atoms: _3  and  _6
REMARK    4  A    between atoms: _6  and  _7
REMARK    5  A    between atoms: _10  and  _12
REMARK    6  A    between atoms: _12  and  _13
REMARK    7  A    between atoms: _12  and  _15
REMARK    8  A    between atoms: _15  and  _16
REMARK    9  A    between atoms: _21  and  _22
REMARK   10  A    between atoms: _24  and  _26
REMARK   11  A    between atoms: _26  and  _27
REMARK   12  A    between atoms: _26  and  _29
REMARK   13  A    between atoms: _29  and  _30
REMARK   14  A    between atoms: _33  and  _35
REMARK   15  A    between atoms: _35  and  _36
REMARK   16  A    between atoms: _35  and  _38
REMARK   17  A    between atoms: _38  and  _39
REMARK   18  A    between atoms: _41  and  _43
REMARK   19  A    between atoms: _43  and  _44
REMARK   20  A    between atoms: _43  and  _46
REMARK   21  A    between atoms: _46  and  _47
REMARK   22  A    between atoms: _53  and  _55
REMARK   23  A    between atoms: _55  and  _56
REMARK   24  A    between atoms: _59  and  _61
REMARK   25  A    between atoms: _61  and  _62
REMARK   26  A    between atoms: _61  and  _64
REMARK   27  A    between atoms: _64  and  _65
REMARK   28  A    between atoms: _75  and  _77
REMARK   29  A    between atoms: _77  and  _78
REMARK   30  A    between atoms: _81  and  _82
REMARK   31  A    between atoms: _87  and  _89
REMARK   32  A    between atoms: _89  and  _90
REMARK   33  A    between atoms: _89  and  _92
REMARK   34  A    between atoms: _92  and  _93
REMARK   35  A    between atoms: _93  and  _94
REMARK   36  A    between atoms: _97  and  _99
REMARK   37  A    between atoms: _99  and  _100
REMARK   38  A    between atoms: _99  and  _102
REMARK   39  A    between atoms: _102  and  _103
REMARK   40  A    between atoms: _106  and  _108
REMARK   41  A    between atoms: _108  and  _109
REMARK   42  A    between atoms: _111  and  _113
REMARK   43  A    between atoms: _113  and  _114
REMARK   44  A    between atoms: _113  and  _116
REMARK   45  A    between atoms: _119  and  _121
REMARK   46  A    between atoms: _121  and  _122
REMARK   47  A    between atoms: _121  and  _124
REMARK   48  A    between atoms: _124  and  _125
REMARK   49  A    between atoms: _127  and  _129
REMARK   50  A    between atoms: _129  and  _130
REMARK   51  A    between atoms: _129  and  _132
REMARK   52  A    between atoms: _132  and  _133
REMARK   53  A    between atoms: _136  and  _138
REMARK   54  A    between atoms: _138  and  _139
REMARK   55  A    between atoms: _141  and  _143
REMARK   56  A    between atoms: _143  and  _144
REMARK   57  A    between atoms: _143  and  _146
REMARK   58  A    between atoms: _146  and  _147
REMARK   59  A    between atoms: _150  and  _152
REMARK   60  A    between atoms: _152  and  _153
REMARK   61  A    between atoms: _152  and  _155
REMARK   62  A    between atoms: _155  and  _156
REMARK   63  A    between atoms: _159  and  _161
REMARK   64  A    between atoms: _161  and  _162
REMARK   65  A    between atoms: _161  and  _164
REMARK   66  A    between atoms: _164  and  _165
REMARK   67  A    between atoms: _171  and  _173
REMARK   68  A    between atoms: _173  and  _174
REMARK   69  A    between atoms: _173  and  _176
REMARK   70  A    between atoms: _176  and  _177
REMARK   71  A    between atoms: _180  and  _182
REMARK   72  A    between atoms: _182  and  _183
REMARK   73  A    between atoms: _182  and  _185
REMARK   74  A    between atoms: _185  and  _186
REMARK   75  A    between atoms: _191  and  _192
REMARK   76  A    between atoms: _194  and  _196
REMARK   77  A    between atoms: _196  and  _197
REMARK   78  A    between atoms: _199  and  _201
REMARK   79  A    between atoms: _201  and  _202
REMARK   80  A    between atoms: _201  and  _204
REMARK   81  A    between atoms: _204  and  _205
REMARK   82  A    between atoms: _211  and  _213
REMARK   83  A    between atoms: _213  and  _214
REMARK   84  A    between atoms: _213  and  _216
REMARK   85  A    between atoms: _219  and  _221
REMARK   86  A    between atoms: _221  and  _222
REMARK   87  A    between atoms: _221  and  _224
REMARK   88  A    between atoms: _224  and  _225
REMARK   89  A    between atoms: _225  and  _226
REMARK   90  A    between atoms: _231  and  _233
REMARK   91  A    between atoms: _233  and  _234
REMARK   92  A    between atoms: _233  and  _236
REMARK   93  A    between atoms: _236  and  _237
REMARK   94  A    between atoms: _240  and  _242
REMARK   95  A    between atoms: _242  and  _243
REMARK   96  A    between atoms: _242  and  _245
REMARK   97  A    between atoms: _245  and  _246
REMARK   98  A    between atoms: _246  and  _247
REMARK   99  A    between atoms: _247  and  _248
REMARK  100  A    between atoms: _257  and  _259
REMARK  101  A    between atoms: _259  and  _260
REMARK  102  A    between atoms: _259  and  _262
REMARK  103  A    between atoms: _262  and  _263
REMARK  104  A    between atoms: _266  and  _268
REMARK  105  A    between atoms: _268  and  _269
REMARK  106  A    between atoms: _268  and  _271
REMARK  107  A    between atoms: _271  and  _272
REMARK  108  A    between atoms: _274  and  _276
REMARK  109  A    between atoms: _276  and  _277
REMARK  110  A    between atoms: _276  and  _279
REMARK  111  A    between atoms: _279  and  _280
REMARK  112  A    between atoms: _284  and  _285
REMARK  113  A    between atoms: _290  and  _292
REMARK  114  A    between atoms: _292  and  _293
REMARK  115  A    between atoms: _295  and  _297
REMARK  116  A    between atoms: _297  and  _298
REMARK  117  A    between atoms: _297  and  _300
REMARK  118  A    between atoms: _300  and  _301
REMARK  119  A    between atoms: _304  and  _306
REMARK  120  A    between atoms: _306  and  _307
REMARK  121  A    between atoms: _309  and  _311
REMARK  122  A    between atoms: _311  and  _312
REMARK  123  A    between atoms: _311  and  _314
REMARK  124  A    between atoms: _314  and  _315
REMARK  125  A    between atoms: _318  and  _320
REMARK  126  A    between atoms: _320  and  _321
REMARK  127  A    between atoms: _320  and  _323
REMARK  128  A    between atoms: _323  and  _324
REMARK  129  A    between atoms: _324  and  _325
REMARK  130  A    between atoms: _325  and  _326
REMARK  131  A    between atoms: _326  and  _327
REMARK  132  A    between atoms: _331  and  _333
REMARK  133  A    between atoms: _333  and  _334
REMARK  134  A    between atoms: _336  and  _338
REMARK  135  A    between atoms: _338  and  _339
REMARK  136  A    between atoms: _338  and  _341
REMARK  137  A    between atoms: _341  and  _342
REMARK  138  A    between atoms: _352  and  _354
REMARK  139  A    between atoms: _354  and  _355
REMARK  140  A    between atoms: _354  and  _357
REMARK  141  A    between atoms: _357  and  _358
REMARK  142  A    between atoms: _360  and  _362
REMARK  143  A    between atoms: _362  and  _363
REMARK  144  A    between atoms: _362  and  _365
REMARK  145  A    between atoms: _365  and  _366
REMARK  146  A    between atoms: _366  and  _367
REMARK  147  A    between atoms: _370  and  _372
REMARK  148  A    between atoms: _372  and  _373
REMARK  149  A    between atoms: _376  and  _378
REMARK  150  A    between atoms: _378  and  _379
REMARK  151  A    between atoms: _378  and  _381
REMARK  152  A    between atoms: _381  and  _382
REMARK  153  A    between atoms: _387  and  _388
REMARK  154  A    between atoms: _390  and  _392
REMARK  155  A    between atoms: _392  and  _393
REMARK  156  A    between atoms: _392  and  _395
REMARK  157  A    between atoms: _395  and  _396
REMARK  158  A    between atoms: _399  and  _401
REMARK  159  A    between atoms: _401  and  _402
REMARK  160  A    between atoms: _401  and  _404
REMARK  161  A    between atoms: _404  and  _405
REMARK  162  A    between atoms: _408  and  _410
REMARK  163  A    between atoms: _410  and  _411
REMARK  164  A    between atoms: _410  and  _413
REMARK  165  A    between atoms: _413  and  _414
REMARK  166  A    between atoms: _416  and  _418
REMARK  167  A    between atoms: _418  and  _419
REMARK  168  A    between atoms: _418  and  _421
REMARK  169  A    between atoms: _421  and  _422
REMARK  170  A    between atoms: _427  and  _428
REMARK  171  A    between atoms: _430  and  _432
REMARK  172  A    between atoms: _432  and  _433
REMARK  173  A    between atoms: _432  and  _435
REMARK  174  A    between atoms: _435  and  _436
REMARK  175  A    between atoms: _439  and  _441
REMARK  176  A    between atoms: _441  and  _442
REMARK  177  A    between atoms: _441  and  _444
REMARK  178  A    between atoms: _444  and  _445
REMARK  179  A    between atoms: _448  and  _450
REMARK  180  A    between atoms: _450  and  _451
REMARK  181  A    between atoms: _450  and  _453
REMARK  182  A    between atoms: _453  and  _454
REMARK  183  A    between atoms: _457  and  _458
REMARK  184  A    between atoms: _463  and  _465
REMARK  185  A    between atoms: _465  and  _466
REMARK  186  A    between atoms: _469  and  _471
REMARK  187  A    between atoms: _471  and  _472
REMARK  188  A    between atoms: _471  and  _474
REMARK  189  A    between atoms: _474  and  _475
REMARK  190  A    between atoms: _480  and  _481
REMARK  191  A    between atoms: _483  and  _485
REMARK  192  A    between atoms: _485  and  _486
REMARK  193  A    between atoms: _485  and  _488
REMARK  194  A    between atoms: _488  and  _489
REMARK  195  A    between atoms: _494  and  _496
REMARK  196  A    between atoms: _496  and  _497
REMARK  197  A    between atoms: _496  and  _499
REMARK  198  A    between atoms: _499  and  _500
REMARK  199  A    between atoms: _503  and  _505
REMARK  200  A    between atoms: _505  and  _506
REMARK  201  A    between atoms: _505  and  _508
REMARK  202  A    between atoms: _508  and  _509
REMARK  203  A    between atoms: _509  and  _510
REMARK  204  A    between atoms: _515  and  _517
REMARK  205  A    between atoms: _517  and  _518
REMARK  206  A    between atoms: _517  and  _520
REMARK  207  A    between atoms: _520  and  _521
REMARK  208  A    between atoms: _521  and  _522
REMARK  209  A    between atoms: _525  and  _527
REMARK  210  A    between atoms: _527  and  _528
REMARK  211  A    between atoms: _527  and  _530
REMARK  212  A    between atoms: _530  and  _531
REMARK  213  A    between atoms: _535  and  _536
REMARK  214  A    between atoms: _541  and  _543
REMARK  215  A    between atoms: _543  and  _544
REMARK  216  A    between atoms: _543  and  _546
REMARK  217  A    between atoms: _546  and  _547
REMARK  218  A    between atoms: _550  and  _552
REMARK  219  A    between atoms: _552  and  _553
REMARK  220  A    between atoms: _555  and  _557
REMARK  221  A    between atoms: _557  and  _558
REMARK  222  A    between atoms: _557  and  _560
REMARK  223  A    between atoms: _560  and  _561
REMARK  224  A    between atoms: _566  and  _568
REMARK  225  A    between atoms: _568  and  _569
REMARK  226  A    between atoms: _568  and  _571
REMARK  227  A    between atoms: _571  and  _572
REMARK  228  A    between atoms: _582  and  _584
REMARK  229  A    between atoms: _584  and  _585
REMARK  230  A    between atoms: _584  and  _587
REMARK  231  A    between atoms: _587  and  _588
REMARK  232  A    between atoms: _588  and  _589
REMARK  233  A    between atoms: _591  and  _593
REMARK  234  A    between atoms: _593  and  _594
REMARK  235  A    between atoms: _593  and  _596
REMARK  236  A    between atoms: _596  and  _597
REMARK  237  A    between atoms: _602  and  _603
REMARK                            x       y       z     vdW  Elec       q    Type
REMARK                         _______ _______ _______ _____ _____    ______ ____
ROOT
ATOM      1  O   HOH     1      18.740  56.261 108.756  0.00  0.00    +0.000 OA
ENDROOT
TORSDOF 0
REMARK  Name = ../refined-set-2016/2qry/2qry_pocket.pdb
REMARK  237 active torsions:
REMARK  status: ('A' for Active; 'I' for Inactive)
REMARK    1  A    between atoms: _1  and  _3
REMARK    2  A    between atoms: _3  and  _4
REMARK    3  A    between atoms: _3  and  _6
REMARK    4  A    between atoms: _6  and  _7
REMARK    5  A    between atoms: _10  and  _12
REMARK    6  A    between atoms: _12  and  _13
REMARK    7  A    between atoms: _12  and  _15
REMARK    8  A    between atoms: _15  and  _16
REMARK    9  A    between atoms: _21  and  _22
REMARK   10  A    between atoms: _24  and  _26
REMARK   11  A    between atoms: _26  and  _27
REMARK   12  A    between atoms: _26  and  _29
REMARK   13  A    between atoms: _29  and  _30
REMARK   14  A    between atoms: _33  and  _35
REMARK   15  A    between atoms: _35  and  _36
REMARK   16  A    between atoms: _35  and  _38
REMARK   17  A    between atoms: _38  and  _39
REMARK   18  A    between atoms: _41  and  _43
REMARK   19  A    between atoms: _43  and  _44
REMARK   20  A    between atoms: _43  and  _46
REMARK   21  A    between atoms: _46  and  _47
REMARK   22  A    between atoms: _53  and  _55
REMARK   23  A    between atoms: _55  and  _56
REMARK   24  A    between atoms: _59  and  _61
REMARK   25  A    between atoms: _61  and  _62
REMARK   26  A    between atoms: _61  and  _64
REMARK   27  A    between atoms: _64  and  _65
REMARK   28  A    between atoms: _75  and  _77
REMARK   29  A    between atoms: _77  and  _78
REMARK   30  A    between atoms: _81  and  _82
REMARK   31  A    between atoms: _87  and  _89
REMARK   32  A    between atoms: _89  and  _90
REMARK   33  A    between atoms: _89  and  _92
REMARK   34  A    between atoms: _92  and  _93
REMARK   35  A    between atoms: _93  and  _94
REMARK   36  A    between atoms: _97  and  _99
REMARK   37  A    between atoms: _99  and  _100
REMARK   38  A    between atoms: _99  and  _102
REMARK   39  A    between atoms: _102  and  _103
REMARK   40  A    between atoms: _106  and  _108
REMARK   41  A    between atoms: _108  and  _109
REMARK   42  A    between atoms: _111  and  _113
REMARK   43  A    between atoms: _113  and  _114
REMARK   44  A    between atoms: _113  and  _116
REMARK   45  A    between atoms: _119  and  _121
REMARK   46  A    between atoms: _121  and  _122
REMARK   47  A    between atoms: _121  and  _124
REMARK   48  A    between atoms: _124  and  _125
REMARK   49  A    between atoms: _127  and  _129
REMARK   50  A    between atoms: _129  and  _130
REMARK   51  A    between atoms: _129  and  _132
REMARK   52  A    between atoms: _132  and  _133
REMARK   53  A    between atoms: _136  and  _138
REMARK   54  A    between atoms: _138  and  _139
REMARK   55  A    between atoms: _141  and  _143
REMARK   56  A    between atoms: _143  and  _144
REMARK   57  A    between atoms: _143  and  _146
REMARK   58  A    between atoms: _146  and  _147
REMARK   59  A    between atoms: _150  and  _152
REMARK   60  A    between atoms: _152  and  _153
REMARK   61  A    between atoms: _152  and  _155
REMARK   62  A    between atoms: _155  and  _156
REMARK   63  A    between atoms: _159  and  _161
REMARK   64  A    between atoms: _161  and  _162
REMARK   65  A    between atoms: _161  and  _164
REMARK   66  A    between atoms: _164  and  _165
REMARK   67  A    between atoms: _171  and  _173
REMARK   68  A    between atoms: _173  and  _174
REMARK   69  A    between atoms: _173  and  _176
REMARK   70  A    between atoms: _176  and  _177
REMARK   71  A    between atoms: _180  and  _182
REMARK   72  A    between atoms: _182  and  _183
REMARK   73  A    between atoms: _182  and  _185
REMARK   74  A    between atoms: _185  and  _186
REMARK   75  A    between atoms: _191  and  _192
REMARK   76  A    between atoms: _194  and  _196
REMARK   77  A    between atoms: _196  and  _197
REMARK   78  A    between atoms: _199  and  _201
REMARK   79  A    between atoms: _201  and  _202
REMARK   80  A    between atoms: _201  and  _204
REMARK   81  A    between atoms: _204  and  _205
REMARK   82  A    between atoms: _211  and  _213
REMARK   83  A    between atoms: _213  and  _214
REMARK   84  A    between atoms: _213  and  _216
REMARK   85  A    between atoms: _219  and  _221
REMARK   86  A    between atoms: _221  and  _222
REMARK   87  A    between atoms: _221  and  _224
REMARK   88  A    between atoms: _224  and  _225
REMARK   89  A    between atoms: _225  and  _226
REMARK   90  A    between atoms: _231  and  _233
REMARK   91  A    between atoms: _233  and  _234
REMARK   92  A    between atoms: _233  and  _236
REMARK   93  A    between atoms: _236  and  _237
REMARK   94  A    between atoms: _240  and  _242
REMARK   95  A    between atoms: _242  and  _243
REMARK   96  A    between atoms: _242  and  _245
REMARK   97  A    between atoms: _245  and  _246
REMARK   98  A    between atoms: _246  and  _247
REMARK   99  A    between atoms: _247  and  _248
REMARK  100  A    between atoms: _257  and  _259
REMARK  101  A    between atoms: _259  and  _260
REMARK  102  A    between atoms: _259  and  _262
REMARK  103  A    between atoms: _262  and  _263
REMARK  104  A    between atoms: _266  and  _268
REMARK  105  A    between atoms: _268  and  _269
REMARK  106  A    between atoms: _268  and  _271
REMARK  107  A    between atoms: _271  and  _272
REMARK  108  A    between atoms: _274  and  _276
REMARK  109  A    between atoms: _276  and  _277
REMARK  110  A    between atoms: _276  and  _279
REMARK  111  A    between atoms: _279  and  _280
REMARK  112  A    between atoms: _284  and  _285
REMARK  113  A    between atoms: _290  and  _292
REMARK  114  A    between atoms: _292  and  _293
REMARK  115  A    between atoms: _295  and  _297
REMARK  116  A    between atoms: _297  and  _298
REMARK  117  A    between atoms: _297  and  _300
REMARK  118  A    between atoms: _300  and  _301
REMARK  119  A    between atoms: _304  and  _306
REMARK  120  A    between atoms: _306  and  _307
REMARK  121  A    between atoms: _309  and  _311
REMARK  122  A    between atoms: _311  and  _312
REMARK  123  A    between atoms: _311  and  _314
REMARK  124  A    between atoms: _314  and  _315
REMARK  125  A    between atoms: _318  and  _320
REMARK  126  A    between atoms: _320  and  _321
REMARK  127  A    between atoms: _320  and  _323
REMARK  128  A    between atoms: _323  and  _324
REMARK  129  A    between atoms: _324  and  _325
REMARK  130  A    between atoms: _325  and  _326
REMARK  131  A    between atoms: _326  and  _327
REMARK  132  A    between atoms: _331  and  _333
REMARK  133  A    between atoms: _333  and  _334
REMARK  134  A    between atoms: _336  and  _338
REMARK  135  A    between atoms: _338  and  _339
REMARK  136  A    between atoms: _338  and  _341
REMARK  137  A    between atoms: _341  and  _342
REMARK  138  A    between atoms: _352  and  _354
REMARK  139  A    between atoms: _354  and  _355
REMARK  140  A    between atoms: _354  and  _357
REMARK  141  A    between atoms: _357  and  _358
REMARK  142  A    between atoms: _360  and  _362
REMARK  143  A    between atoms: _362  and  _363
REMARK  144  A    between atoms: _362  and  _365
REMARK  145  A    between atoms: _365  and  _366
REMARK  146  A    between atoms: _366  and  _367
REMARK  147  A    between atoms: _370  and  _372
REMARK  148  A    between atoms: _372  and  _373
REMARK  149  A    between atoms: _376  and  _378
REMARK  150  A    between atoms: _378  and  _379
REMARK  151  A    between atoms: _378  and  _381
REMARK  152  A    between atoms: _381  and  _382
REMARK  153  A    between atoms: _387  and  _388
REMARK  154  A    between atoms: _390  and  _392
REMARK  155  A    between atoms: _392  and  _393
REMARK  156  A    between atoms: _392  and  _395
REMARK  157  A    between atoms: _395  and  _396
REMARK  158  A    between atoms: _399  and  _401
REMARK  159  A    between atoms: _401  and  _402
REMARK  160  A    between atoms: _401  and  _404
REMARK  161  A    between atoms: _404  and  _405
REMARK  162  A    between atoms: _408  and  _410
REMARK  163  A    between atoms: _410  and  _411
REMARK  164  A    between atoms: _410  and  _413
REMARK  165  A    between atoms: _413  and  _414
REMARK  166  A    between atoms: _416  and  _418
REMARK  167  A    between atoms: _418  and  _419
REMARK  168  A    between atoms: _418  and  _421
REMARK  169  A    between atoms: _421  and  _422
REMARK  170  A    between atoms: _427  and  _428
REMARK  171  A    between atoms: _430  and  _432
REMARK  172  A    between atoms: _432  and  _433
REMARK  173  A    between atoms: _432  and  _435
REMARK  174  A    between atoms: _435  and  _436
REMARK  175  A    between atoms: _439  and  _441
REMARK  176  A    between atoms: _441  and  _442
REMARK  177  A    between atoms: _441  and  _444
REMARK  178  A    between atoms: _444  and  _445
REMARK  179  A    between atoms: _448  and  _450
REMARK  180  A    between atoms: _450  and  _451
REMARK  181  A    between atoms: _450  and  _453
REMARK  182  A    between atoms: _453  and  _454
REMARK  183  A    between atoms: _457  and  _458
REMARK  184  A    between atoms: _463  and  _465
REMARK  185  A    between atoms: _465  and  _466
REMARK  186  A    between atoms: _469  and  _471
REMARK  187  A    between atoms: _471  and  _472
REMARK  188  A    between atoms: _471  and  _474
REMARK  189  A    between atoms: _474  and  _475
REMARK  190  A    between atoms: _480  and  _481
REMARK  191  A    between atoms: _483  and  _485
REMARK  192  A    between atoms: _485  and  _486
REMARK  193  A    between atoms: _485  and  _488
REMARK  194  A    between atoms: _488  and  _489
REMARK  195  A    between atoms: _494  and  _496
REMARK  196  A    between atoms: _496  and  _497
REMARK  197  A    between atoms: _496  and  _499
REMARK  198  A    between atoms: _499  and  _500
REMARK  199  A    between atoms: _503  and  _505
REMARK  200  A    between atoms: _505  and  _506
REMARK  201  A    between atoms: _505  and  _508
REMARK  202  A    between atoms: _508  and  _509
REMARK  203  A    between atoms: _509  and  _510
REMARK  204  A    between atoms: _515  and  _517
REMARK  205  A    between atoms: _517  and  _518
REMARK  206  A    between atoms: _517  and  _520
REMARK  207  A    between atoms: _520  and  _521
REMARK  208  A    between atoms: _521  and  _522
REMARK  209  A    between atoms: _525  and  _527
REMARK  210  A    between atoms: _527  and  _528
REMARK  211  A    between atoms: _527  and  _530
REMARK  212  A    between atoms: _530  and  _531
REMARK  213  A    between atoms: _535  and  _536
REMARK  214  A    between atoms: _541  and  _543
REMARK  215  A    between atoms: _543  and  _544
REMARK  216  A    between atoms: _543  and  _546
REMARK  217  A    between atoms: _546  and  _547
REMARK  218  A    between atoms: _550  and  _552
REMARK  219  A    between atoms: _552  and  _553
REMARK  220  A    between atoms: _555  and  _557
REMARK  221  A    between atoms: _557  and  _558
REMARK  222  A    between atoms: _557  and  _560
REMARK  223  A    between atoms: _560  and  _561
REMARK  224  A    between atoms: _566  and  _568
REMARK  225  A    between atoms: _568  and  _569
REMARK  226  A    between atoms: _568  and  _571
REMARK  227  A    between atoms: _571  and  _572
REMARK  228  A    between atoms: _582  and  _584
REMARK  229  A    between atoms: _584  and  _585
REMARK  230  A    between atoms: _584  and  _587
REMARK  231  A    between atoms: _587  and  _588
REMARK  232  A    between atoms: _588  and  _589
REMARK  233  A    between atoms: _591  and  _593
REMARK  234  A    between atoms: _593  and  _594
REMARK  235  A    between atoms: _593  and  _596
REMARK  236  A    between atoms: _596  and  _597
REMARK  237  A    between atoms: _602  and  _603
REMARK                            x       y       z     vdW  Elec       q    Type
REMARK                         _______ _______ _______ _____ _____    ______ ____
ROOT
ATOM      1  O   HOH     1       4.024  46.255 117.627  0.00  0.00    +0.000 OA
ENDROOT
TORSDOF 0
REMARK  Name = ../refined-set-2016/2qry/2qry_pocket.pdb
REMARK  237 active torsions:
REMARK  status: ('A' for Active; 'I' for Inactive)
REMARK    1  A    between atoms: _1  and  _3
REMARK    2  A    between atoms: _3  and  _4
REMARK    3  A    between atoms: _3  and  _6
REMARK    4  A    between atoms: _6  and  _7
REMARK    5  A    between atoms: _10  and  _12
REMARK    6  A    between atoms: _12  and  _13
REMARK    7  A    between atoms: _12  and  _15
REMARK    8  A    between atoms: _15  and  _16
REMARK    9  A    between atoms: _21  and  _22
REMARK   10  A    between atoms: _24  and  _26
REMARK   11  A    between atoms: _26  and  _27
REMARK   12  A    between atoms: _26  and  _29
REMARK   13  A    between atoms: _29  and  _30
REMARK   14  A    between atoms: _33  and  _35
REMARK   15  A    between atoms: _35  and  _36
REMARK   16  A    between atoms: _35  and  _38
REMARK   17  A    between atoms: _38  and  _39
REMARK   18  A    between atoms: _41  and  _43
REMARK   19  A    between atoms: _43  and  _44
REMARK   20  A    between atoms: _43  and  _46
REMARK   21  A    between atoms: _46  and  _47
REMARK   22  A    between atoms: _53  and  _55
REMARK   23  A    between atoms: _55  and  _56
REMARK   24  A    between atoms: _59  and  _61
REMARK   25  A    between atoms: _61  and  _62
REMARK   26  A    between atoms: _61  and  _64
REMARK   27  A    between atoms: _64  and  _65
REMARK   28  A    between atoms: _75  and  _77
REMARK   29  A    between atoms: _77  and  _78
REMARK   30  A    between atoms: _81  and  _82
REMARK   31  A    between atoms: _87  and  _89
REMARK   32  A    between atoms: _89  and  _90
REMARK   33  A    between atoms: _89  and  _92
REMARK   34  A    between atoms: _92  and  _93
REMARK   35  A    between atoms: _93  and  _94
REMARK   36  A    between atoms: _97  and  _99
REMARK   37  A    between atoms: _99  and  _100
REMARK   38  A    between atoms: _99  and  _102
REMARK   39  A    between atoms: _102  and  _103
REMARK   40  A    between atoms: _106  and  _108
REMARK   41  A    between atoms: _108  and  _109
REMARK   42  A    between atoms: _111  and  _113
REMARK   43  A    between atoms: _113  and  _114
REMARK   44  A    between atoms: _113  and  _116
REMARK   45  A    between atoms: _119  and  _121
REMARK   46  A    between atoms: _121  and  _122
REMARK   47  A    between atoms: _121  and  _124
REMARK   48  A    between atoms: _124  and  _125
REMARK   49  A    between atoms: _127  and  _129
REMARK   50  A    between atoms: _129  and  _130
REMARK   51  A    between atoms: _129  and  _132
REMARK   52  A    between atoms: _132  and  _133
REMARK   53  A    between atoms: _136  and  _138
REMARK   54  A    between atoms: _138  and  _139
REMARK   55  A    between atoms: _141  and  _143
REMARK   56  A    between atoms: _143  and  _144
REMARK   57  A    between atoms: _143  and  _146
REMARK   58  A    between atoms: _146  and  _147
REMARK   59  A    between atoms: _150  and  _152
REMARK   60  A    between atoms: _152  and  _153
REMARK   61  A    between atoms: _152  and  _155
REMARK   62  A    between atoms: _155  and  _156
REMARK   63  A    between atoms: _159  and  _161
REMARK   64  A    between atoms: _161  and  _162
REMARK   65  A    between atoms: _161  and  _164
REMARK   66  A    between atoms: _164  and  _165
REMARK   67  A    between atoms: _171  and  _173
REMARK   68  A    between atoms: _173  and  _174
REMARK   69  A    between atoms: _173  and  _176
REMARK   70  A    between atoms: _176  and  _177
REMARK   71  A    between atoms: _180  and  _182
REMARK   72  A    between atoms: _182  and  _183
REMARK   73  A    between atoms: _182  and  _185
REMARK   74  A    between atoms: _185  and  _186
REMARK   75  A    between atoms: _191  and  _192
REMARK   76  A    between atoms: _194  and  _196
REMARK   77  A    between atoms: _196  and  _197
REMARK   78  A    between atoms: _199  and  _201
REMARK   79  A    between atoms: _201  and  _202
REMARK   80  A    between atoms: _201  and  _204
REMARK   81  A    between atoms: _204  and  _205
REMARK   82  A    between atoms: _211  and  _213
REMARK   83  A    between atoms: _213  and  _214
REMARK   84  A    between atoms: _213  and  _216
REMARK   85  A    between atoms: _219  and  _221
REMARK   86  A    between atoms: _221  and  _222
REMARK   87  A    between atoms: _221  and  _224
REMARK   88  A    between atoms: _224  and  _225
REMARK   89  A    between atoms: _225  and  _226
REMARK   90  A    between atoms: _231  and  _233
REMARK   91  A    between atoms: _233  and  _234
REMARK   92  A    between atoms: _233  and  _236
REMARK   93  A    between atoms: _236  and  _237
REMARK   94  A    between atoms: _240  and  _242
REMARK   95  A    between atoms: _242  and  _243
REMARK   96  A    between atoms: _242  and  _245
REMARK   97  A    between atoms: _245  and  _246
REMARK   98  A    between atoms: _246  and  _247
REMARK   99  A    between atoms: _247  and  _248
REMARK  100  A    between atoms: _257  and  _259
REMARK  101  A    between atoms: _259  and  _260
REMARK  102  A    between atoms: _259  and  _262
REMARK  103  A    between atoms: _262  and  _263
REMARK  104  A    between atoms: _266  and  _268
REMARK  105  A    between atoms: _268  and  _269
REMARK  106  A    between atoms: _268  and  _271
REMARK  107  A    between atoms: _271  and  _272
REMARK  108  A    between atoms: _274  and  _276
REMARK  109  A    between atoms: _276  and  _277
REMARK  110  A    between atoms: _276  and  _279
REMARK  111  A    between atoms: _279  and  _280
REMARK  112  A    between atoms: _284  and  _285
REMARK  113  A    between atoms: _290  and  _292
REMARK  114  A    between atoms: _292  and  _293
REMARK  115  A    between atoms: _295  and  _297
REMARK  116  A    between atoms: _297  and  _298
REMARK  117  A    between atoms: _297  and  _300
REMARK  118  A    between atoms: _300  and  _301
REMARK  119  A    between atoms: _304  and  _306
REMARK  120  A    between atoms: _306  and  _307
REMARK  121  A    between atoms: _309  and  _311
REMARK  122  A    between atoms: _311  and  _312
REMARK  123  A    between atoms: _311  and  _314
REMARK  124  A    between atoms: _314  and  _315
REMARK  125  A    between atoms: _318  and  _320
REMARK  126  A    between atoms: _320  and  _321
REMARK  127  A    between atoms: _320  and  _323
REMARK  128  A    between atoms: _323  and  _324
REMARK  129  A    between atoms: _324  and  _325
REMARK  130  A    between atoms: _325  and  _326
REMARK  131  A    between atoms: _326  and  _327
REMARK  132  A    between atoms: _331  and  _333
REMARK  133  A    between atoms: _333  and  _334
REMARK  134  A    between atoms: _336  and  _338
REMARK  135  A    between atoms: _338  and  _339
REMARK  136  A    between atoms: _338  and  _341
REMARK  137  A    between atoms: _341  and  _342
REMARK  138  A    between atoms: _352  and  _354
REMARK  139  A    between atoms: _354  and  _355
REMARK  140  A    between atoms: _354  and  _357
REMARK  141  A    between atoms: _357  and  _358
REMARK  142  A    between atoms: _360  and  _362
REMARK  143  A    between atoms: _362  and  _363
REMARK  144  A    between atoms: _362  and  _365
REMARK  145  A    between atoms: _365  and  _366
REMARK  146  A    between atoms: _366  and  _367
REMARK  147  A    between atoms: _370  and  _372
REMARK  148  A    between atoms: _372  and  _373
REMARK  149  A    between atoms: _376  and  _378
REMARK  150  A    between atoms: _378  and  _379
REMARK  151  A    between atoms: _378  and  _381
REMARK  152  A    between atoms: _381  and  _382
REMARK  153  A    between atoms: _387  and  _388
REMARK  154  A    between atoms: _390  and  _392
REMARK  155  A    between atoms: _392  and  _393
REMARK  156  A    between atoms: _392  and  _395
REMARK  157  A    between atoms: _395  and  _396
REMARK  158  A    between atoms: _399  and  _401
REMARK  159  A    between atoms: _401  and  _402
REMARK  160  A    between atoms: _401  and  _404
REMARK  161  A    between atoms: _404  and  _405
REMARK  162  A    between atoms: _408  and  _410
REMARK  163  A    between atoms: _410  and  _411
REMARK  164  A    between atoms: _410  and  _413
REMARK  165  A    between atoms: _413  and  _414
REMARK  166  A    between atoms: _416  and  _418
REMARK  167  A    between atoms: _418  and  _419
REMARK  168  A    between atoms: _418  and  _421
REMARK  169  A    between atoms: _421  and  _422
REMARK  170  A    between atoms: _427  and  _428
REMARK  171  A    between atoms: _430  and  _432
REMARK  172  A    between atoms: _432  and  _433
REMARK  173  A    between atoms: _432  and  _435
REMARK  174  A    between atoms: _435  and  _436
REMARK  175  A    between atoms: _439  and  _441
REMARK  176  A    between atoms: _441  and  _442
REMARK  177  A    between atoms: _441  and  _444
REMARK  178  A    between atoms: _444  and  _445
REMARK  179  A    between atoms: _448  and  _450
REMARK  180  A    between atoms: _450  and  _451
REMARK  181  A    between atoms: _450  and  _453
REMARK  182  A    between atoms: _453  and  _454
REMARK  183  A    between atoms: _457  and  _458
REMARK  184  A    between atoms: _463  and  _465
REMARK  185  A    between atoms: _465  and  _466
REMARK  186  A    between atoms: _469  and  _471
REMARK  187  A    between atoms: _471  and  _472
REMARK  188  A    between atoms: _471  and  _474
REMARK  189  A    between atoms: _474  and  _475
REMARK  190  A    between atoms: _480  and  _481
REMARK  191  A    between atoms: _483  and  _485
REMARK  192  A    between atoms: _485  and  _486
REMARK  193  A    between atoms: _485  and  _488
REMARK  194  A    between atoms: _488  and  _489
REMARK  195  A    between atoms: _494  and  _496
REMARK  196  A    between atoms: _496  and  _497
REMARK  197  A    between atoms: _496  and  _499
REMARK  198  A    between atoms: _499  and  _500
REMARK  199  A    between atoms: _503  and  _505
REMARK  200  A    between atoms: _505  and  _506
REMARK  201  A    between atoms: _505  and  _508
REMARK  202  A    between atoms: _508  and  _509
REMARK  203  A    between atoms: _509  and  _510
REMARK  204  A    between atoms: _515  and  _517
REMARK  205  A    between atoms: _517  and  _518
REMARK  206  A    between atoms: _517  and  _520
REMARK  207  A    between atoms: _520  and  _521
REMARK  208  A    between atoms: _521  and  _522
REMARK  209  A    between atoms: _525  and  _527
REMARK  210  A    between atoms: _527  and  _528
REMARK  211  A    between atoms: _527  and  _530
REMARK  212  A    between atoms: _530  and  _531
REMARK  213  A    between atoms: _535  and  _536
REMARK  214  A    between atoms: _541  and  _543
REMARK  215  A    between atoms: _543  and  _544
REMARK  216  A    between atoms: _543  and  _546
REMARK  217  A    between atoms: _546  and  _547
REMARK  218  A    between atoms: _550  and  _552
REMARK  219  A    between atoms: _552  and  _553
REMARK  220  A    between atoms: _555  and  _557
REMARK  221  A    between atoms: _557  and  _558
REMARK  222  A    between atoms: _557  and  _560
REMARK  223  A    between atoms: _560  and  _561
REMARK  224  A    between atoms: _566  and  _568
REMARK  225  A    between atoms: _568  and  _569
REMARK  226  A    between atoms: _568  and  _571
REMARK  227  A    between atoms: _571  and  _572
REMARK  228  A    between atoms: _582  and  _584
REMARK  229  A    between atoms: _584  and  _585
REMARK  230  A    between atoms: _584  and  _587
REMARK  231  A    between atoms: _587  and  _588
REMARK  232  A    between atoms: _588  and  _589
REMARK  233  A    between atoms: _591  and  _593
REMARK  234  A    between atoms: _593  and  _594
REMARK  235  A    between atoms: _593  and  _596
REMARK  236  A    between atoms: _596  and  _597
REMARK  237  A    between atoms: _602  and  _603
REMARK                            x       y       z     vdW  Elec       q    Type
REMARK                         _______ _______ _______ _____ _____    ______ ____
ROOT
ATOM      1  O   HOH     1      10.868  54.168 108.293  0.00  0.00    +0.000 OA
ENDROOT
TORSDOF 0
REMARK  Name = ../refined-set-2016/2qry/2qry_pocket.pdb
REMARK  237 active torsions:
REMARK  status: ('A' for Active; 'I' for Inactive)
REMARK    1  A    between atoms: _1  and  _3
REMARK    2  A    between atoms: _3  and  _4
REMARK    3  A    between atoms: _3  and  _6
REMARK    4  A    between atoms: _6  and  _7
REMARK    5  A    between atoms: _10  and  _12
REMARK    6  A    between atoms: _12  and  _13
REMARK    7  A    between atoms: _12  and  _15
REMARK    8  A    between atoms: _15  and  _16
REMARK    9  A    between atoms: _21  and  _22
REMARK   10  A    between atoms: _24  and  _26
REMARK   11  A    between atoms: _26  and  _27
REMARK   12  A    between atoms: _26  and  _29
REMARK   13  A    between atoms: _29  and  _30
REMARK   14  A    between atoms: _33  and  _35
REMARK   15  A    between atoms: _35  and  _36
REMARK   16  A    between atoms: _35  and  _38
REMARK   17  A    between atoms: _38  and  _39
REMARK   18  A    between atoms: _41  and  _43
REMARK   19  A    between atoms: _43  and  _44
REMARK   20  A    between atoms: _43  and  _46
REMARK   21  A    between atoms: _46  and  _47
REMARK   22  A    between atoms: _53  and  _55
REMARK   23  A    between atoms: _55  and  _56
REMARK   24  A    between atoms: _59  and  _61
REMARK   25  A    between atoms: _61  and  _62
REMARK   26  A    between atoms: _61  and  _64
REMARK   27  A    between atoms: _64  and  _65
REMARK   28  A    between atoms: _75  and  _77
REMARK   29  A    between atoms: _77  and  _78
REMARK   30  A    between atoms: _81  and  _82
REMARK   31  A    between atoms: _87  and  _89
REMARK   32  A    between atoms: _89  and  _90
REMARK   33  A    between atoms: _89  and  _92
REMARK   34  A    between atoms: _92  and  _93
REMARK   35  A    between atoms: _93  and  _94
REMARK   36  A    between atoms: _97  and  _99
REMARK   37  A    between atoms: _99  and  _100
REMARK   38  A    between atoms: _99  and  _102
REMARK   39  A    between atoms: _102  and  _103
REMARK   40  A    between atoms: _106  and  _108
REMARK   41  A    between atoms: _108  and  _109
REMARK   42  A    between atoms: _111  and  _113
REMARK   43  A    between atoms: _113  and  _114
REMARK   44  A    between atoms: _113  and  _116
REMARK   45  A    between atoms: _119  and  _121
REMARK   46  A    between atoms: _121  and  _122
REMARK   47  A    between atoms: _121  and  _124
REMARK   48  A    between atoms: _124  and  _125
REMARK   49  A    between atoms: _127  and  _129
REMARK   50  A    between atoms: _129  and  _130
REMARK   51  A    between atoms: _129  and  _132
REMARK   52  A    between atoms: _132  and  _133
REMARK   53  A    between atoms: _136  and  _138
REMARK   54  A    between atoms: _138  and  _139
REMARK   55  A    between atoms: _141  and  _143
REMARK   56  A    between atoms: _143  and  _144
REMARK   57  A    between atoms: _143  and  _146
REMARK   58  A    between atoms: _146  and  _147
REMARK   59  A    between atoms: _150  and  _152
REMARK   60  A    between atoms: _152  and  _153
REMARK   61  A    between atoms: _152  and  _155
REMARK   62  A    between atoms: _155  and  _156
REMARK   63  A    between atoms: _159  and  _161
REMARK   64  A    between atoms: _161  and  _162
REMARK   65  A    between atoms: _161  and  _164
REMARK   66  A    between atoms: _164  and  _165
REMARK   67  A    between atoms: _171  and  _173
REMARK   68  A    between atoms: _173  and  _174
REMARK   69  A    between atoms: _173  and  _176
REMARK   70  A    between atoms: _176  and  _177
REMARK   71  A    between atoms: _180  and  _182
REMARK   72  A    between atoms: _182  and  _183
REMARK   73  A    between atoms: _182  and  _185
REMARK   74  A    between atoms: _185  and  _186
REMARK   75  A    between atoms: _191  and  _192
REMARK   76  A    between atoms: _194  and  _196
REMARK   77  A    between atoms: _196  and  _197
REMARK   78  A    between atoms: _199  and  _201
REMARK   79  A    between atoms: _201  and  _202
REMARK   80  A    between atoms: _201  and  _204
REMARK   81  A    between atoms: _204  and  _205
REMARK   82  A    between atoms: _211  and  _213
REMARK   83  A    between atoms: _213  and  _214
REMARK   84  A    between atoms: _213  and  _216
REMARK   85  A    between atoms: _219  and  _221
REMARK   86  A    between atoms: _221  and  _222
REMARK   87  A    between atoms: _221  and  _224
REMARK   88  A    between atoms: _224  and  _225
REMARK   89  A    between atoms: _225  and  _226
REMARK   90  A    between atoms: _231  and  _233
REMARK   91  A    between atoms: _233  and  _234
REMARK   92  A    between atoms: _233  and  _236
REMARK   93  A    between atoms: _236  and  _237
REMARK   94  A    between atoms: _240  and  _242
REMARK   95  A    between atoms: _242  and  _243
REMARK   96  A    between atoms: _242  and  _245
REMARK   97  A    between atoms: _245  and  _246
REMARK   98  A    between atoms: _246  and  _247
REMARK   99  A    between atoms: _247  and  _248
REMARK  100  A    between atoms: _257  and  _259
REMARK  101  A    between atoms: _259  and  _260
REMARK  102  A    between atoms: _259  and  _262
REMARK  103  A    between atoms: _262  and  _263
REMARK  104  A    between atoms: _266  and  _268
REMARK  105  A    between atoms: _268  and  _269
REMARK  106  A    between atoms: _268  and  _271
REMARK  107  A    between atoms: _271  and  _272
REMARK  108  A    between atoms: _274  and  _276
REMARK  109  A    between atoms: _276  and  _277
REMARK  110  A    between atoms: _276  and  _279
REMARK  111  A    between atoms: _279  and  _280
REMARK  112  A    between atoms: _284  and  _285
REMARK  113  A    between atoms: _290  and  _292
REMARK  114  A    between atoms: _292  and  _293
REMARK  115  A    between atoms: _295  and  _297
REMARK  116  A    between atoms: _297  and  _298
REMARK  117  A    between atoms: _297  and  _300
REMARK  118  A    between atoms: _300  and  _301
REMARK  119  A    between atoms: _304  and  _306
REMARK  120  A    between atoms: _306  and  _307
REMARK  121  A    between atoms: _309  and  _311
REMARK  122  A    between atoms: _311  and  _312
REMARK  123  A    between atoms: _311  and  _314
REMARK  124  A    between atoms: _314  and  _315
REMARK  125  A    between atoms: _318  and  _320
REMARK  126  A    between atoms: _320  and  _321
REMARK  127  A    between atoms: _320  and  _323
REMARK  128  A    between atoms: _323  and  _324
REMARK  129  A    between atoms: _324  and  _325
REMARK  130  A    between atoms: _325  and  _326
REMARK  131  A    between atoms: _326  and  _327
REMARK  132  A    between atoms: _331  and  _333
REMARK  133  A    between atoms: _333  and  _334
REMARK  134  A    between atoms: _336  and  _338
REMARK  135  A    between atoms: _338  and  _339
REMARK  136  A    between atoms: _338  and  _341
REMARK  137  A    between atoms: _341  and  _342
REMARK  138  A    between atoms: _352  and  _354
REMARK  139  A    between atoms: _354  and  _355
REMARK  140  A    between atoms: _354  and  _357
REMARK  141  A    between atoms: _357  and  _358
REMARK  142  A    between atoms: _360  and  _362
REMARK  143  A    between atoms: _362  and  _363
REMARK  144  A    between atoms: _362  and  _365
REMARK  145  A    between atoms: _365  and  _366
REMARK  146  A    between atoms: _366  and  _367
REMARK  147  A    between atoms: _370  and  _372
REMARK  148  A    between atoms: _372  and  _373
REMARK  149  A    between atoms: _376  and  _378
REMARK  150  A    between atoms: _378  and  _379
REMARK  151  A    between atoms: _378  and  _381
REMARK  152  A    between atoms: _381  and  _382
REMARK  153  A    between atoms: _387  and  _388
REMARK  154  A    between atoms: _390  and  _392
REMARK  155  A    between atoms: _392  and  _393
REMARK  156  A    between atoms: _392  and  _395
REMARK  157  A    between atoms: _395  and  _396
REMARK  158  A    between atoms: _399  and  _401
REMARK  159  A    between atoms: _401  and  _402
REMARK  160  A    between atoms: _401  and  _404
REMARK  161  A    between atoms: _404  and  _405
REMARK  162  A    between atoms: _408  and  _410
REMARK  163  A    between atoms: _410  and  _411
REMARK  164  A    between atoms: _410  and  _413
REMARK  165  A    between atoms: _413  and  _414
REMARK  166  A    between atoms: _416  and  _418
REMARK  167  A    between atoms: _418  and  _419
REMARK  168  A    between atoms: _418  and  _421
REMARK  169  A    between atoms: _421  and  _422
REMARK  170  A    between atoms: _427  and  _428
REMARK  171  A    between atoms: _430  and  _432
REMARK  172  A    between atoms: _432  and  _433
REMARK  173  A    between atoms: _432  and  _435
REMARK  174  A    between atoms: _435  and  _436
REMARK  175  A    between atoms: _439  and  _441
REMARK  176  A    between atoms: _441  and  _442
REMARK  177  A    between atoms: _441  and  _444
REMARK  178  A    between atoms: _444  and  _445
REMARK  179  A    between atoms: _448  and  _450
REMARK  180  A    between atoms: _450  and  _451
REMARK  181  A    between atoms: _450  and  _453
REMARK  182  A    between atoms: _453  and  _454
REMARK  183  A    between atoms: _457  and  _458
REMARK  184  A    between atoms: _463  and  _465
REMARK  185  A    between atoms: _465  and  _466
REMARK  186  A    between atoms: _469  and  _471
REMARK  187  A    between atoms: _471  and  _472
REMARK  188  A    between atoms: _471  and  _474
REMARK  189  A    between atoms: _474  and  _475
REMARK  190  A    between atoms: _480  and  _481
REMARK  191  A    between atoms: _483  and  _485
REMARK  192  A    between atoms: _485  and  _486
REMARK  193  A    between atoms: _485  and  _488
REMARK  194  A    between atoms: _488  and  _489
REMARK  195  A    between atoms: _494  and  _496
REMARK  196  A    between atoms: _496  and  _497
REMARK  197  A    between atoms: _496  and  _499
REMARK  198  A    between atoms: _499  and  _500
REMARK  199  A    between atoms: _503  and  _505
REMARK  200  A    between atoms: _505  and  _506
REMARK  201  A    between atoms: _505  and  _508
REMARK  202  A    between atoms: _508  and  _509
REMARK  203  A    between atoms: _509  and  _510
REMARK  204  A    between atoms: _515  and  _517
REMARK  205  A    between atoms: _517  and  _518
REMARK  206  A    between atoms: _517  and  _520
REMARK  207  A    between atoms: _520  and  _521
REMARK  208  A    between atoms: _521  and  _522
REMARK  209  A    between atoms: _525  and  _527
REMARK  210  A    between atoms: _527  and  _528
REMARK  211  A    between atoms: _527  and  _530
REMARK  212  A    between atoms: _530  and  _531
REMARK  213  A    between atoms: _535  and  _536
REMARK  214  A    between atoms: _541  and  _543
REMARK  215  A    between atoms: _543  and  _544
REMARK  216  A    between atoms: _543  and  _546
REMARK  217  A    between atoms: _546  and  _547
REMARK  218  A    between atoms: _550  and  _552
REMARK  219  A    between atoms: _552  and  _553
REMARK  220  A    between atoms: _555  and  _557
REMARK  221  A    between atoms: _557  and  _558
REMARK  222  A    between atoms: _557  and  _560
REMARK  223  A    between atoms: _560  and  _561
REMARK  224  A    between atoms: _566  and  _568
REMARK  225  A    between atoms: _568  and  _569
REMARK  226  A    between atoms: _568  and  _571
REMARK  227  A    between atoms: _571  and  _572
REMARK  228  A    between atoms: _582  and  _584
REMARK  229  A    between atoms: _584  and  _585
REMARK  230  A    between atoms: _584  and  _587
REMARK  231  A    between atoms: _587  and  _588
REMARK  232  A    between atoms: _588  and  _589
REMARK  233  A    between atoms: _591  and  _593
REMARK  234  A    between atoms: _593  and  _594
REMARK  235  A    between atoms: _593  and  _596
REMARK  236  A    between atoms: _596  and  _597
REMARK  237  A    between atoms: _602  and  _603
REMARK                            x       y       z     vdW  Elec       q    Type
REMARK                         _______ _______ _______ _____ _____    ______ ____
ROOT
ATOM      1  O   HOH     1       5.514  57.192 113.183  0.00  0.00    +0.000 OA
ENDROOT
TORSDOF 0
REMARK  Name = ../refined-set-2016/2qry/2qry_pocket.pdb
REMARK  237 active torsions:
REMARK  status: ('A' for Active; 'I' for Inactive)
REMARK    1  A    between atoms: _1  and  _3
REMARK    2  A    between atoms: _3  and  _4
REMARK    3  A    between atoms: _3  and  _6
REMARK    4  A    between atoms: _6  and  _7
REMARK    5  A    between atoms: _10  and  _12
REMARK    6  A    between atoms: _12  and  _13
REMARK    7  A    between atoms: _12  and  _15
REMARK    8  A    between atoms: _15  and  _16
REMARK    9  A    between atoms: _21  and  _22
REMARK   10  A    between atoms: _24  and  _26
REMARK   11  A    between atoms: _26  and  _27
REMARK   12  A    between atoms: _26  and  _29
REMARK   13  A    between atoms: _29  and  _30
REMARK   14  A    between atoms: _33  and  _35
REMARK   15  A    between atoms: _35  and  _36
REMARK   16  A    between atoms: _35  and  _38
REMARK   17  A    between atoms: _38  and  _39
REMARK   18  A    between atoms: _41  and  _43
REMARK   19  A    between atoms: _43  and  _44
REMARK   20  A    between atoms: _43  and  _46
REMARK   21  A    between atoms: _46  and  _47
REMARK   22  A    between atoms: _53  and  _55
REMARK   23  A    between atoms: _55  and  _56
REMARK   24  A    between atoms: _59  and  _61
REMARK   25  A    between atoms: _61  and  _62
REMARK   26  A    between atoms: _61  and  _64
REMARK   27  A    between atoms: _64  and  _65
REMARK   28  A    between atoms: _75  and  _77
REMARK   29  A    between atoms: _77  and  _78
REMARK   30  A    between atoms: _81  and  _82
REMARK   31  A    between atoms: _87  and  _89
REMARK   32  A    between atoms: _89  and  _90
REMARK   33  A    between atoms: _89  and  _92
REMARK   34  A    between atoms: _92  and  _93
REMARK   35  A    between atoms: _93  and  _94
REMARK   36  A    between atoms: _97  and  _99
REMARK   37  A    between atoms: _99  and  _100
REMARK   38  A    between atoms: _99  and  _102
REMARK   39  A    between atoms: _102  and  _103
REMARK   40  A    between atoms: _106  and  _108
REMARK   41  A    between atoms: _108  and  _109
REMARK   42  A    between atoms: _111  and  _113
REMARK   43  A    between atoms: _113  and  _114
REMARK   44  A    between atoms: _113  and  _116
REMARK   45  A    between atoms: _119  and  _121
REMARK   46  A    between atoms: _121  and  _122
REMARK   47  A    between atoms: _121  and  _124
REMARK   48  A    between atoms: _124  and  _125
REMARK   49  A    between atoms: _127  and  _129
REMARK   50  A    between atoms: _129  and  _130
REMARK   51  A    between atoms: _129  and  _132
REMARK   52  A    between atoms: _132  and  _133
REMARK   53  A    between atoms: _136  and  _138
REMARK   54  A    between atoms: _138  and  _139
REMARK   55  A    between atoms: _141  and  _143
REMARK   56  A    between atoms: _143  and  _144
REMARK   57  A    between atoms: _143  and  _146
REMARK   58  A    between atoms: _146  and  _147
REMARK   59  A    between atoms: _150  and  _152
REMARK   60  A    between atoms: _152  and  _153
REMARK   61  A    between atoms: _152  and  _155
REMARK   62  A    between atoms: _155  and  _156
REMARK   63  A    between atoms: _159  and  _161
REMARK   64  A    between atoms: _161  and  _162
REMARK   65  A    between atoms: _161  and  _164
REMARK   66  A    between atoms: _164  and  _165
REMARK   67  A    between atoms: _171  and  _173
REMARK   68  A    between atoms: _173  and  _174
REMARK   69  A    between atoms: _173  and  _176
REMARK   70  A    between atoms: _176  and  _177
REMARK   71  A    between atoms: _180  and  _182
REMARK   72  A    between atoms: _182  and  _183
REMARK   73  A    between atoms: _182  and  _185
REMARK   74  A    between atoms: _185  and  _186
REMARK   75  A    between atoms: _191  and  _192
REMARK   76  A    between atoms: _194  and  _196
REMARK   77  A    between atoms: _196  and  _197
REMARK   78  A    between atoms: _199  and  _201
REMARK   79  A    between atoms: _201  and  _202
REMARK   80  A    between atoms: _201  and  _204
REMARK   81  A    between atoms: _204  and  _205
REMARK   82  A    between atoms: _211  and  _213
REMARK   83  A    between atoms: _213  and  _214
REMARK   84  A    between atoms: _213  and  _216
REMARK   85  A    between atoms: _219  and  _221
REMARK   86  A    between atoms: _221  and  _222
REMARK   87  A    between atoms: _221  and  _224
REMARK   88  A    between atoms: _224  and  _225
REMARK   89  A    between atoms: _225  and  _226
REMARK   90  A    between atoms: _231  and  _233
REMARK   91  A    between atoms: _233  and  _234
REMARK   92  A    between atoms: _233  and  _236
REMARK   93  A    between atoms: _236  and  _237
REMARK   94  A    between atoms: _240  and  _242
REMARK   95  A    between atoms: _242  and  _243
REMARK   96  A    between atoms: _242  and  _245
REMARK   97  A    between atoms: _245  and  _246
REMARK   98  A    between atoms: _246  and  _247
REMARK   99  A    between atoms: _247  and  _248
REMARK  100  A    between atoms: _257  and  _259
REMARK  101  A    between atoms: _259  and  _260
REMARK  102  A    between atoms: _259  and  _262
REMARK  103  A    between atoms: _262  and  _263
REMARK  104  A    between atoms: _266  and  _268
REMARK  105  A    between atoms: _268  and  _269
REMARK  106  A    between atoms: _268  and  _271
REMARK  107  A    between atoms: _271  and  _272
REMARK  108  A    between atoms: _274  and  _276
REMARK  109  A    between atoms: _276  and  _277
REMARK  110  A    between atoms: _276  and  _279
REMARK  111  A    between atoms: _279  and  _280
REMARK  112  A    between atoms: _284  and  _285
REMARK  113  A    between atoms: _290  and  _292
REMARK  114  A    between atoms: _292  and  _293
REMARK  115  A    between atoms: _295  and  _297
REMARK  116  A    between atoms: _297  and  _298
REMARK  117  A    between atoms: _297  and  _300
REMARK  118  A    between atoms: _300  and  _301
REMARK  119  A    between atoms: _304  and  _306
REMARK  120  A    between atoms: _306  and  _307
REMARK  121  A    between atoms: _309  and  _311
REMARK  122  A    between atoms: _311  and  _312
REMARK  123  A    between atoms: _311  and  _314
REMARK  124  A    between atoms: _314  and  _315
REMARK  125  A    between atoms: _318  and  _320
REMARK  126  A    between atoms: _320  and  _321
REMARK  127  A    between atoms: _320  and  _323
REMARK  128  A    between atoms: _323  and  _324
REMARK  129  A    between atoms: _324  and  _325
REMARK  130  A    between atoms: _325  and  _326
REMARK  131  A    between atoms: _326  and  _327
REMARK  132  A    between atoms: _331  and  _333
REMARK  133  A    between atoms: _333  and  _334
REMARK  134  A    between atoms: _336  and  _338
REMARK  135  A    between atoms: _338  and  _339
REMARK  136  A    between atoms: _338  and  _341
REMARK  137  A    between atoms: _341  and  _342
REMARK  138  A    between atoms: _352  and  _354
REMARK  139  A    between atoms: _354  and  _355
REMARK  140  A    between atoms: _354  and  _357
REMARK  141  A    between atoms: _357  and  _358
REMARK  142  A    between atoms: _360  and  _362
REMARK  143  A    between atoms: _362  and  _363
REMARK  144  A    between atoms: _362  and  _365
REMARK  145  A    between atoms: _365  and  _366
REMARK  146  A    between atoms: _366  and  _367
REMARK  147  A    between atoms: _370  and  _372
REMARK  148  A    between atoms: _372  and  _373
REMARK  149  A    between atoms: _376  and  _378
REMARK  150  A    between atoms: _378  and  _379
REMARK  151  A    between atoms: _378  and  _381
REMARK  152  A    between atoms: _381  and  _382
REMARK  153  A    between atoms: _387  and  _388
REMARK  154  A    between atoms: _390  and  _392
REMARK  155  A    between atoms: _392  and  _393
REMARK  156  A    between atoms: _392  and  _395
REMARK  157  A    between atoms: _395  and  _396
REMARK  158  A    between atoms: _399  and  _401
REMARK  159  A    between atoms: _401  and  _402
REMARK  160  A    between atoms: _401  and  _404
REMARK  161  A    between atoms: _404  and  _405
REMARK  162  A    between atoms: _408  and  _410
REMARK  163  A    between atoms: _410  and  _411
REMARK  164  A    between atoms: _410  and  _413
REMARK  165  A    between atoms: _413  and  _414
REMARK  166  A    between atoms: _416  and  _418
REMARK  167  A    between atoms: _418  and  _419
REMARK  168  A    between atoms: _418  and  _421
REMARK  169  A    between atoms: _421  and  _422
REMARK  170  A    between atoms: _427  and  _428
REMARK  171  A    between atoms: _430  and  _432
REMARK  172  A    between atoms: _432  and  _433
REMARK  173  A    between atoms: _432  and  _435
REMARK  174  A    between atoms: _435  and  _436
REMARK  175  A    between atoms: _439  and  _441
REMARK  176  A    between atoms: _441  and  _442
REMARK  177  A    between atoms: _441  and  _444
REMARK  178  A    between atoms: _444  and  _445
REMARK  179  A    between atoms: _448  and  _450
REMARK  180  A    between atoms: _450  and  _451
REMARK  181  A    between atoms: _450  and  _453
REMARK  182  A    between atoms: _453  and  _454
REMARK  183  A    between atoms: _457  and  _458
REMARK  184  A    between atoms: _463  and  _465
REMARK  185  A    between atoms: _465  and  _466
REMARK  186  A    between atoms: _469  and  _471
REMARK  187  A    between atoms: _471  and  _472
REMARK  188  A    between atoms: _471  and  _474
REMARK  189  A    between atoms: _474  and  _475
REMARK  190  A    between atoms: _480  and  _481
REMARK  191  A    between atoms: _483  and  _485
REMARK  192  A    between atoms: _485  and  _486
REMARK  193  A    between atoms: _485  and  _488
REMARK  194  A    between atoms: _488  and  _489
REMARK  195  A    between atoms: _494  and  _496
REMARK  196  A    between atoms: _496  and  _497
REMARK  197  A    between atoms: _496  and  _499
REMARK  198  A    between atoms: _499  and  _500
REMARK  199  A    between atoms: _503  and  _505
REMARK  200  A    between atoms: _505  and  _506
REMARK  201  A    between atoms: _505  and  _508
REMARK  202  A    between atoms: _508  and  _509
REMARK  203  A    between atoms: _509  and  _510
REMARK  204  A    between atoms: _515  and  _517
REMARK  205  A    between atoms: _517  and  _518
REMARK  206  A    between atoms: _517  and  _520
REMARK  207  A    between atoms: _520  and  _521
REMARK  208  A    between atoms: _521  and  _522
REMARK  209  A    between atoms: _525  and  _527
REMARK  210  A    between atoms: _527  and  _528
REMARK  211  A    between atoms: _527  and  _530
REMARK  212  A    between atoms: _530  and  _531
REMARK  213  A    between atoms: _535  and  _536
REMARK  214  A    between atoms: _541  and  _543
REMARK  215  A    between atoms: _543  and  _544
REMARK  216  A    between atoms: _543  and  _546
REMARK  217  A    between atoms: _546  and  _547
REMARK  218  A    between atoms: _550  and  _552
REMARK  219  A    between atoms: _552  and  _553
REMARK  220  A    between atoms: _555  and  _557
REMARK  221  A    between atoms: _557  and  _558
REMARK  222  A    between atoms: _557  and  _560
REMARK  223  A    between atoms: _560  and  _561
REMARK  224  A    between atoms: _566  and  _568
REMARK  225  A    between atoms: _568  and  _569
REMARK  226  A    between atoms: _568  and  _571
REMARK  227  A    between atoms: _571  and  _572
REMARK  228  A    between atoms: _582  and  _584
REMARK  229  A    between atoms: _584  and  _585
REMARK  230  A    between atoms: _584  and  _587
REMARK  231  A    between atoms: _587  and  _588
REMARK  232  A    between atoms: _588  and  _589
REMARK  233  A    between atoms: _591  and  _593
REMARK  234  A    between atoms: _593  and  _594
REMARK  235  A    between atoms: _593  and  _596
REMARK  236  A    between atoms: _596  and  _597
REMARK  237  A    between atoms: _602  and  _603
REMARK                            x       y       z     vdW  Elec       q    Type
REMARK                         _______ _______ _______ _____ _____    ______ ____
ROOT
ATOM      1  O   HOH     1      13.855  54.937 108.045  0.00  0.00    +0.000 OA
ENDROOT
TORSDOF 0
REMARK  Name = ../refined-set-2016/2qry/2qry_pocket.pdb
REMARK  237 active torsions:
REMARK  status: ('A' for Active; 'I' for Inactive)
REMARK    1  A    between atoms: _1  and  _3
REMARK    2  A    between atoms: _3  and  _4
REMARK    3  A    between atoms: _3  and  _6
REMARK    4  A    between atoms: _6  and  _7
REMARK    5  A    between atoms: _10  and  _12
REMARK    6  A    between atoms: _12  and  _13
REMARK    7  A    between atoms: _12  and  _15
REMARK    8  A    between atoms: _15  and  _16
REMARK    9  A    between atoms: _21  and  _22
REMARK   10  A    between atoms: _24  and  _26
REMARK   11  A    between atoms: _26  and  _27
REMARK   12  A    between atoms: _26  and  _29
REMARK   13  A    between atoms: _29  and  _30
REMARK   14  A    between atoms: _33  and  _35
REMARK   15  A    between atoms: _35  and  _36
REMARK   16  A    between atoms: _35  and  _38
REMARK   17  A    between atoms: _38  and  _39
REMARK   18  A    between atoms: _41  and  _43
REMARK   19  A    between atoms: _43  and  _44
REMARK   20  A    between atoms: _43  and  _46
REMARK   21  A    between atoms: _46  and  _47
REMARK   22  A    between atoms: _53  and  _55
REMARK   23  A    between atoms: _55  and  _56
REMARK   24  A    between atoms: _59  and  _61
REMARK   25  A    between atoms: _61  and  _62
REMARK   26  A    between atoms: _61  and  _64
REMARK   27  A    between atoms: _64  and  _65
REMARK   28  A    between atoms: _75  and  _77
REMARK   29  A    between atoms: _77  and  _78
REMARK   30  A    between atoms: _81  and  _82
REMARK   31  A    between atoms: _87  and  _89
REMARK   32  A    between atoms: _89  and  _90
REMARK   33  A    between atoms: _89  and  _92
REMARK   34  A    between atoms: _92  and  _93
REMARK   35  A    between atoms: _93  and  _94
REMARK   36  A    between atoms: _97  and  _99
REMARK   37  A    between atoms: _99  and  _100
REMARK   38  A    between atoms: _99  and  _102
REMARK   39  A    between atoms: _102  and  _103
REMARK   40  A    between atoms: _106  and  _108
REMARK   41  A    between atoms: _108  and  _109
REMARK   42  A    between atoms: _111  and  _113
REMARK   43  A    between atoms: _113  and  _114
REMARK   44  A    between atoms: _113  and  _116
REMARK   45  A    between atoms: _119  and  _121
REMARK   46  A    between atoms: _121  and  _122
REMARK   47  A    between atoms: _121  and  _124
REMARK   48  A    between atoms: _124  and  _125
REMARK   49  A    between atoms: _127  and  _129
REMARK   50  A    between atoms: _129  and  _130
REMARK   51  A    between atoms: _129  and  _132
REMARK   52  A    between atoms: _132  and  _133
REMARK   53  A    between atoms: _136  and  _138
REMARK   54  A    between atoms: _138  and  _139
REMARK   55  A    between atoms: _141  and  _143
REMARK   56  A    between atoms: _143  and  _144
REMARK   57  A    between atoms: _143  and  _146
REMARK   58  A    between atoms: _146  and  _147
REMARK   59  A    between atoms: _150  and  _152
REMARK   60  A    between atoms: _152  and  _153
REMARK   61  A    between atoms: _152  and  _155
REMARK   62  A    between atoms: _155  and  _156
REMARK   63  A    between atoms: _159  and  _161
REMARK   64  A    between atoms: _161  and  _162
REMARK   65  A    between atoms: _161  and  _164
REMARK   66  A    between atoms: _164  and  _165
REMARK   67  A    between atoms: _171  and  _173
REMARK   68  A    between atoms: _173  and  _174
REMARK   69  A    between atoms: _173  and  _176
REMARK   70  A    between atoms: _176  and  _177
REMARK   71  A    between atoms: _180  and  _182
REMARK   72  A    between atoms: _182  and  _183
REMARK   73  A    between atoms: _182  and  _185
REMARK   74  A    between atoms: _185  and  _186
REMARK   75  A    between atoms: _191  and  _192
REMARK   76  A    between atoms: _194  and  _196
REMARK   77  A    between atoms: _196  and  _197
REMARK   78  A    between atoms: _199  and  _201
REMARK   79  A    between atoms: _201  and  _202
REMARK   80  A    between atoms: _201  and  _204
REMARK   81  A    between atoms: _204  and  _205
REMARK   82  A    between atoms: _211  and  _213
REMARK   83  A    between atoms: _213  and  _214
REMARK   84  A    between atoms: _213  and  _216
REMARK   85  A    between atoms: _219  and  _221
REMARK   86  A    between atoms: _221  and  _222
REMARK   87  A    between atoms: _221  and  _224
REMARK   88  A    between atoms: _224  and  _225
REMARK   89  A    between atoms: _225  and  _226
REMARK   90  A    between atoms: _231  and  _233
REMARK   91  A    between atoms: _233  and  _234
REMARK   92  A    between atoms: _233  and  _236
REMARK   93  A    between atoms: _236  and  _237
REMARK   94  A    between atoms: _240  and  _242
REMARK   95  A    between atoms: _242  and  _243
REMARK   96  A    between atoms: _242  and  _245
REMARK   97  A    between atoms: _245  and  _246
REMARK   98  A    between atoms: _246  and  _247
REMARK   99  A    between atoms: _247  and  _248
REMARK  100  A    between atoms: _257  and  _259
REMARK  101  A    between atoms: _259  and  _260
REMARK  102  A    between atoms: _259  and  _262
REMARK  103  A    between atoms: _262  and  _263
REMARK  104  A    between atoms: _266  and  _268
REMARK  105  A    between atoms: _268  and  _269
REMARK  106  A    between atoms: _268  and  _271
REMARK  107  A    between atoms: _271  and  _272
REMARK  108  A    between atoms: _274  and  _276
REMARK  109  A    between atoms: _276  and  _277
REMARK  110  A    between atoms: _276  and  _279
REMARK  111  A    between atoms: _279  and  _280
REMARK  112  A    between atoms: _284  and  _285
REMARK  113  A    between atoms: _290  and  _292
REMARK  114  A    between atoms: _292  and  _293
REMARK  115  A    between atoms: _295  and  _297
REMARK  116  A    between atoms: _297  and  _298
REMARK  117  A    between atoms: _297  and  _300
REMARK  118  A    between atoms: _300  and  _301
REMARK  119  A    between atoms: _304  and  _306
REMARK  120  A    between atoms: _306  and  _307
REMARK  121  A    between atoms: _309  and  _311
REMARK  122  A    between atoms: _311  and  _312
REMARK  123  A    between atoms: _311  and  _314
REMARK  124  A    between atoms: _314  and  _315
REMARK  125  A    between atoms: _318  and  _320
REMARK  126  A    between atoms: _320  and  _321
REMARK  127  A    between atoms: _320  and  _323
REMARK  128  A    between atoms: _323  and  _324
REMARK  129  A    between atoms: _324  and  _325
REMARK  130  A    between atoms: _325  and  _326
REMARK  131  A    between atoms: _326  and  _327
REMARK  132  A    between atoms: _331  and  _333
REMARK  133  A    between atoms: _333  and  _334
REMARK  134  A    between atoms: _336  and  _338
REMARK  135  A    between atoms: _338  and  _339
REMARK  136  A    between atoms: _338  and  _341
REMARK  137  A    between atoms: _341  and  _342
REMARK  138  A    between atoms: _352  and  _354
REMARK  139  A    between atoms: _354  and  _355
REMARK  140  A    between atoms: _354  and  _357
REMARK  141  A    between atoms: _357  and  _358
REMARK  142  A    between atoms: _360  and  _362
REMARK  143  A    between atoms: _362  and  _363
REMARK  144  A    between atoms: _362  and  _365
REMARK  145  A    between atoms: _365  and  _366
REMARK  146  A    between atoms: _366  and  _367
REMARK  147  A    between atoms: _370  and  _372
REMARK  148  A    between atoms: _372  and  _373
REMARK  149  A    between atoms: _376  and  _378
REMARK  150  A    between atoms: _378  and  _379
REMARK  151  A    between atoms: _378  and  _381
REMARK  152  A    between atoms: _381  and  _382
REMARK  153  A    between atoms: _387  and  _388
REMARK  154  A    between atoms: _390  and  _392
REMARK  155  A    between atoms: _392  and  _393
REMARK  156  A    between atoms: _392  and  _395
REMARK  157  A    between atoms: _395  and  _396
REMARK  158  A    between atoms: _399  and  _401
REMARK  159  A    between atoms: _401  and  _402
REMARK  160  A    between atoms: _401  and  _404
REMARK  161  A    between atoms: _404  and  _405
REMARK  162  A    between atoms: _408  and  _410
REMARK  163  A    between atoms: _410  and  _411
REMARK  164  A    between atoms: _410  and  _413
REMARK  165  A    between atoms: _413  and  _414
REMARK  166  A    between atoms: _416  and  _418
REMARK  167  A    between atoms: _418  and  _419
REMARK  168  A    between atoms: _418  and  _421
REMARK  169  A    between atoms: _421  and  _422
REMARK  170  A    between atoms: _427  and  _428
REMARK  171  A    between atoms: _430  and  _432
REMARK  172  A    between atoms: _432  and  _433
REMARK  173  A    between atoms: _432  and  _435
REMARK  174  A    between atoms: _435  and  _436
REMARK  175  A    between atoms: _439  and  _441
REMARK  176  A    between atoms: _441  and  _442
REMARK  177  A    between atoms: _441  and  _444
REMARK  178  A    between atoms: _444  and  _445
REMARK  179  A    between atoms: _448  and  _450
REMARK  180  A    between atoms: _450  and  _451
REMARK  181  A    between atoms: _450  and  _453
REMARK  182  A    between atoms: _453  and  _454
REMARK  183  A    between atoms: _457  and  _458
REMARK  184  A    between atoms: _463  and  _465
REMARK  185  A    between atoms: _465  and  _466
REMARK  186  A    between atoms: _469  and  _471
REMARK  187  A    between atoms: _471  and  _472
REMARK  188  A    between atoms: _471  and  _474
REMARK  189  A    between atoms: _474  and  _475
REMARK  190  A    between atoms: _480  and  _481
REMARK  191  A    between atoms: _483  and  _485
REMARK  192  A    between atoms: _485  and  _486
REMARK  193  A    between atoms: _485  and  _488
REMARK  194  A    between atoms: _488  and  _489
REMARK  195  A    between atoms: _494  and  _496
REMARK  196  A    between atoms: _496  and  _497
REMARK  197  A    between atoms: _496  and  _499
REMARK  198  A    between atoms: _499  and  _500
REMARK  199  A    between atoms: _503  and  _505
REMARK  200  A    between atoms: _505  and  _506
REMARK  201  A    between atoms: _505  and  _508
REMARK  202  A    between atoms: _508  and  _509
REMARK  203  A    between atoms: _509  and  _510
REMARK  204  A    between atoms: _515  and  _517
REMARK  205  A    between atoms: _517  and  _518
REMARK  206  A    between atoms: _517  and  _520
REMARK  207  A    between atoms: _520  and  _521
REMARK  208  A    between atoms: _521  and  _522
REMARK  209  A    between atoms: _525  and  _527
REMARK  210  A    between atoms: _527  and  _528
REMARK  211  A    between atoms: _527  and  _530
REMARK  212  A    between atoms: _530  and  _531
REMARK  213  A    between atoms: _535  and  _536
REMARK  214  A    between atoms: _541  and  _543
REMARK  215  A    between atoms: _543  and  _544
REMARK  216  A    between atoms: _543  and  _546
REMARK  217  A    between atoms: _546  and  _547
REMARK  218  A    between atoms: _550  and  _552
REMARK  219  A    between atoms: _552  and  _553
REMARK  220  A    between atoms: _555  and  _557
REMARK  221  A    between atoms: _557  and  _558
REMARK  222  A    between atoms: _557  and  _560
REMARK  223  A    between atoms: _560  and  _561
REMARK  224  A    between atoms: _566  and  _568
REMARK  225  A    between atoms: _568  and  _569
REMARK  226  A    between atoms: _568  and  _571
REMARK  227  A    between atoms: _571  and  _572
REMARK  228  A    between atoms: _582  and  _584
REMARK  229  A    between atoms: _584  and  _585
REMARK  230  A    between atoms: _584  and  _587
REMARK  231  A    between atoms: _587  and  _588
REMARK  232  A    between atoms: _588  and  _589
REMARK  233  A    between atoms: _591  and  _593
REMARK  234  A    between atoms: _593  and  _594
REMARK  235  A    between atoms: _593  and  _596
REMARK  236  A    between atoms: _596  and  _597
REMARK  237  A    between atoms: _602  and  _603
REMARK                            x       y       z     vdW  Elec       q    Type
REMARK                         _______ _______ _______ _____ _____    ______ ____
ROOT
ATOM      1  O   HOH     1      15.241  47.701 105.883  0.00  0.00    +0.000 OA
ENDROOT
TORSDOF 0
REMARK  Name = ../refined-set-2016/2qry/2qry_pocket.pdb
REMARK  237 active torsions:
REMARK  status: ('A' for Active; 'I' for Inactive)
REMARK    1  A    between atoms: _1  and  _3
REMARK    2  A    between atoms: _3  and  _4
REMARK    3  A    between atoms: _3  and  _6
REMARK    4  A    between atoms: _6  and  _7
REMARK    5  A    between atoms: _10  and  _12
REMARK    6  A    between atoms: _12  and  _13
REMARK    7  A    between atoms: _12  and  _15
REMARK    8  A    between atoms: _15  and  _16
REMARK    9  A    between atoms: _21  and  _22
REMARK   10  A    between atoms: _24  and  _26
REMARK   11  A    between atoms: _26  and  _27
REMARK   12  A    between atoms: _26  and  _29
REMARK   13  A    between atoms: _29  and  _30
REMARK   14  A    between atoms: _33  and  _35
REMARK   15  A    between atoms: _35  and  _36
REMARK   16  A    between atoms: _35  and  _38
REMARK   17  A    between atoms: _38  and  _39
REMARK   18  A    between atoms: _41  and  _43
REMARK   19  A    between atoms: _43  and  _44
REMARK   20  A    between atoms: _43  and  _46
REMARK   21  A    between atoms: _46  and  _47
REMARK   22  A    between atoms: _53  and  _55
REMARK   23  A    between atoms: _55  and  _56
REMARK   24  A    between atoms: _59  and  _61
REMARK   25  A    between atoms: _61  and  _62
REMARK   26  A    between atoms: _61  and  _64
REMARK   27  A    between atoms: _64  and  _65
REMARK   28  A    between atoms: _75  and  _77
REMARK   29  A    between atoms: _77  and  _78
REMARK   30  A    between atoms: _81  and  _82
REMARK   31  A    between atoms: _87  and  _89
REMARK   32  A    between atoms: _89  and  _90
REMARK   33  A    between atoms: _89  and  _92
REMARK   34  A    between atoms: _92  and  _93
REMARK   35  A    between atoms: _93  and  _94
REMARK   36  A    between atoms: _97  and  _99
REMARK   37  A    between atoms: _99  and  _100
REMARK   38  A    between atoms: _99  and  _102
REMARK   39  A    between atoms: _102  and  _103
REMARK   40  A    between atoms: _106  and  _108
REMARK   41  A    between atoms: _108  and  _109
REMARK   42  A    between atoms: _111  and  _113
REMARK   43  A    between atoms: _113  and  _114
REMARK   44  A    between atoms: _113  and  _116
REMARK   45  A    between atoms: _119  and  _121
REMARK   46  A    between atoms: _121  and  _122
REMARK   47  A    between atoms: _121  and  _124
REMARK   48  A    between atoms: _124  and  _125
REMARK   49  A    between atoms: _127  and  _129
REMARK   50  A    between atoms: _129  and  _130
REMARK   51  A    between atoms: _129  and  _132
REMARK   52  A    between atoms: _132  and  _133
REMARK   53  A    between atoms: _136  and  _138
REMARK   54  A    between atoms: _138  and  _139
REMARK   55  A    between atoms: _141  and  _143
REMARK   56  A    between atoms: _143  and  _144
REMARK   57  A    between atoms: _143  and  _146
REMARK   58  A    between atoms: _146  and  _147
REMARK   59  A    between atoms: _150  and  _152
REMARK   60  A    between atoms: _152  and  _153
REMARK   61  A    between atoms: _152  and  _155
REMARK   62  A    between atoms: _155  and  _156
REMARK   63  A    between atoms: _159  and  _161
REMARK   64  A    between atoms: _161  and  _162
REMARK   65  A    between atoms: _161  and  _164
REMARK   66  A    between atoms: _164  and  _165
REMARK   67  A    between atoms: _171  and  _173
REMARK   68  A    between atoms: _173  and  _174
REMARK   69  A    between atoms: _173  and  _176
REMARK   70  A    between atoms: _176  and  _177
REMARK   71  A    between atoms: _180  and  _182
REMARK   72  A    between atoms: _182  and  _183
REMARK   73  A    between atoms: _182  and  _185
REMARK   74  A    between atoms: _185  and  _186
REMARK   75  A    between atoms: _191  and  _192
REMARK   76  A    between atoms: _194  and  _196
REMARK   77  A    between atoms: _196  and  _197
REMARK   78  A    between atoms: _199  and  _201
REMARK   79  A    between atoms: _201  and  _202
REMARK   80  A    between atoms: _201  and  _204
REMARK   81  A    between atoms: _204  and  _205
REMARK   82  A    between atoms: _211  and  _213
REMARK   83  A    between atoms: _213  and  _214
REMARK   84  A    between atoms: _213  and  _216
REMARK   85  A    between atoms: _219  and  _221
REMARK   86  A    between atoms: _221  and  _222
REMARK   87  A    between atoms: _221  and  _224
REMARK   88  A    between atoms: _224  and  _225
REMARK   89  A    between atoms: _225  and  _226
REMARK   90  A    between atoms: _231  and  _233
REMARK   91  A    between atoms: _233  and  _234
REMARK   92  A    between atoms: _233  and  _236
REMARK   93  A    between atoms: _236  and  _237
REMARK   94  A    between atoms: _240  and  _242
REMARK   95  A    between atoms: _242  and  _243
REMARK   96  A    between atoms: _242  and  _245
REMARK   97  A    between atoms: _245  and  _246
REMARK   98  A    between atoms: _246  and  _247
REMARK   99  A    between atoms: _247  and  _248
REMARK  100  A    between atoms: _257  and  _259
REMARK  101  A    between atoms: _259  and  _260
REMARK  102  A    between atoms: _259  and  _262
REMARK  103  A    between atoms: _262  and  _263
REMARK  104  A    between atoms: _266  and  _268
REMARK  105  A    between atoms: _268  and  _269
REMARK  106  A    between atoms: _268  and  _271
REMARK  107  A    between atoms: _271  and  _272
REMARK  108  A    between atoms: _274  and  _276
REMARK  109  A    between atoms: _276  and  _277
REMARK  110  A    between atoms: _276  and  _279
REMARK  111  A    between atoms: _279  and  _280
REMARK  112  A    between atoms: _284  and  _285
REMARK  113  A    between atoms: _290  and  _292
REMARK  114  A    between atoms: _292  and  _293
REMARK  115  A    between atoms: _295  and  _297
REMARK  116  A    between atoms: _297  and  _298
REMARK  117  A    between atoms: _297  and  _300
REMARK  118  A    between atoms: _300  and  _301
REMARK  119  A    between atoms: _304  and  _306
REMARK  120  A    between atoms: _306  and  _307
REMARK  121  A    between atoms: _309  and  _311
REMARK  122  A    between atoms: _311  and  _312
REMARK  123  A    between atoms: _311  and  _314
REMARK  124  A    between atoms: _314  and  _315
REMARK  125  A    between atoms: _318  and  _320
REMARK  126  A    between atoms: _320  and  _321
REMARK  127  A    between atoms: _320  and  _323
REMARK  128  A    between atoms: _323  and  _324
REMARK  129  A    between atoms: _324  and  _325
REMARK  130  A    between atoms: _325  and  _326
REMARK  131  A    between atoms: _326  and  _327
REMARK  132  A    between atoms: _331  and  _333
REMARK  133  A    between atoms: _333  and  _334
REMARK  134  A    between atoms: _336  and  _338
REMARK  135  A    between atoms: _338  and  _339
REMARK  136  A    between atoms: _338  and  _341
REMARK  137  A    between atoms: _341  and  _342
REMARK  138  A    between atoms: _352  and  _354
REMARK  139  A    between atoms: _354  and  _355
REMARK  140  A    between atoms: _354  and  _357
REMARK  141  A    between atoms: _357  and  _358
REMARK  142  A    between atoms: _360  and  _362
REMARK  143  A    between atoms: _362  and  _363
REMARK  144  A    between atoms: _362  and  _365
REMARK  145  A    between atoms: _365  and  _366
REMARK  146  A    between atoms: _366  and  _367
REMARK  147  A    between atoms: _370  and  _372
REMARK  148  A    between atoms: _372  and  _373
REMARK  149  A    between atoms: _376  and  _378
REMARK  150  A    between atoms: _378  and  _379
REMARK  151  A    between atoms: _378  and  _381
REMARK  152  A    between atoms: _381  and  _382
REMARK  153  A    between atoms: _387  and  _388
REMARK  154  A    between atoms: _390  and  _392
REMARK  155  A    between atoms: _392  and  _393
REMARK  156  A    between atoms: _392  and  _395
REMARK  157  A    between atoms: _395  and  _396
REMARK  158  A    between atoms: _399  and  _401
REMARK  159  A    between atoms: _401  and  _402
REMARK  160  A    between atoms: _401  and  _404
REMARK  161  A    between atoms: _404  and  _405
REMARK  162  A    between atoms: _408  and  _410
REMARK  163  A    between atoms: _410  and  _411
REMARK  164  A    between atoms: _410  and  _413
REMARK  165  A    between atoms: _413  and  _414
REMARK  166  A    between atoms: _416  and  _418
REMARK  167  A    between atoms: _418  and  _419
REMARK  168  A    between atoms: _418  and  _421
REMARK  169  A    between atoms: _421  and  _422
REMARK  170  A    between atoms: _427  and  _428
REMARK  171  A    between atoms: _430  and  _432
REMARK  172  A    between atoms: _432  and  _433
REMARK  173  A    between atoms: _432  and  _435
REMARK  174  A    between atoms: _435  and  _436
REMARK  175  A    between atoms: _439  and  _441
REMARK  176  A    between atoms: _441  and  _442
REMARK  177  A    between atoms: _441  and  _444
REMARK  178  A    between atoms: _444  and  _445
REMARK  179  A    between atoms: _448  and  _450
REMARK  180  A    between atoms: _450  and  _451
REMARK  181  A    between atoms: _450  and  _453
REMARK  182  A    between atoms: _453  and  _454
REMARK  183  A    between atoms: _457  and  _458
REMARK  184  A    between atoms: _463  and  _465
REMARK  185  A    between atoms: _465  and  _466
REMARK  186  A    between atoms: _469  and  _471
REMARK  187  A    between atoms: _471  and  _472
REMARK  188  A    between atoms: _471  and  _474
REMARK  189  A    between atoms: _474  and  _475
REMARK  190  A    between atoms: _480  and  _481
REMARK  191  A    between atoms: _483  and  _485
REMARK  192  A    between atoms: _485  and  _486
REMARK  193  A    between atoms: _485  and  _488
REMARK  194  A    between atoms: _488  and  _489
REMARK  195  A    between atoms: _494  and  _496
REMARK  196  A    between atoms: _496  and  _497
REMARK  197  A    between atoms: _496  and  _499
REMARK  198  A    between atoms: _499  and  _500
REMARK  199  A    between atoms: _503  and  _505
REMARK  200  A    between atoms: _505  and  _506
REMARK  201  A    between atoms: _505  and  _508
REMARK  202  A    between atoms: _508  and  _509
REMARK  203  A    between atoms: _509  and  _510
REMARK  204  A    between atoms: _515  and  _517
REMARK  205  A    between atoms: _517  and  _518
REMARK  206  A    between atoms: _517  and  _520
REMARK  207  A    between atoms: _520  and  _521
REMARK  208  A    between atoms: _521  and  _522
REMARK  209  A    between atoms: _525  and  _527
REMARK  210  A    between atoms: _527  and  _528
REMARK  211  A    between atoms: _527  and  _530
REMARK  212  A    between atoms: _530  and  _531
REMARK  213  A    between atoms: _535  and  _536
REMARK  214  A    between atoms: _541  and  _543
REMARK  215  A    between atoms: _543  and  _544
REMARK  216  A    between atoms: _543  and  _546
REMARK  217  A    between atoms: _546  and  _547
REMARK  218  A    between atoms: _550  and  _552
REMARK  219  A    between atoms: _552  and  _553
REMARK  220  A    between atoms: _555  and  _557
REMARK  221  A    between atoms: _557  and  _558
REMARK  222  A    between atoms: _557  and  _560
REMARK  223  A    between atoms: _560  and  _561
REMARK  224  A    between atoms: _566  and  _568
REMARK  225  A    between atoms: _568  and  _569
REMARK  226  A    between atoms: _568  and  _571
REMARK  227  A    between atoms: _571  and  _572
REMARK  228  A    between atoms: _582  and  _584
REMARK  229  A    between atoms: _584  and  _585
REMARK  230  A    between atoms: _584  and  _587
REMARK  231  A    between atoms: _587  and  _588
REMARK  232  A    between atoms: _588  and  _589
REMARK  233  A    between atoms: _591  and  _593
REMARK  234  A    between atoms: _593  and  _594
REMARK  235  A    between atoms: _593  and  _596
REMARK  236  A    between atoms: _596  and  _597
REMARK  237  A    between atoms: _602  and  _603
REMARK                            x       y       z     vdW  Elec       q    Type
REMARK                         _______ _______ _______ _____ _____    ______ ____
ROOT
ATOM      1  O   HOH     1      11.914  50.456 104.289  0.00  0.00    +0.000 OA
ENDROOT
TORSDOF 0
REMARK  Name = ../refined-set-2016/2qry/2qry_pocket.pdb
REMARK  237 active torsions:
REMARK  status: ('A' for Active; 'I' for Inactive)
REMARK    1  A    between atoms: _1  and  _3
REMARK    2  A    between atoms: _3  and  _4
REMARK    3  A    between atoms: _3  and  _6
REMARK    4  A    between atoms: _6  and  _7
REMARK    5  A    between atoms: _10  and  _12
REMARK    6  A    between atoms: _12  and  _13
REMARK    7  A    between atoms: _12  and  _15
REMARK    8  A    between atoms: _15  and  _16
REMARK    9  A    between atoms: _21  and  _22
REMARK   10  A    between atoms: _24  and  _26
REMARK   11  A    between atoms: _26  and  _27
REMARK   12  A    between atoms: _26  and  _29
REMARK   13  A    between atoms: _29  and  _30
REMARK   14  A    between atoms: _33  and  _35
REMARK   15  A    between atoms: _35  and  _36
REMARK   16  A    between atoms: _35  and  _38
REMARK   17  A    between atoms: _38  and  _39
REMARK   18  A    between atoms: _41  and  _43
REMARK   19  A    between atoms: _43  and  _44
REMARK   20  A    between atoms: _43  and  _46
REMARK   21  A    between atoms: _46  and  _47
REMARK   22  A    between atoms: _53  and  _55
REMARK   23  A    between atoms: _55  and  _56
REMARK   24  A    between atoms: _59  and  _61
REMARK   25  A    between atoms: _61  and  _62
REMARK   26  A    between atoms: _61  and  _64
REMARK   27  A    between atoms: _64  and  _65
REMARK   28  A    between atoms: _75  and  _77
REMARK   29  A    between atoms: _77  and  _78
REMARK   30  A    between atoms: _81  and  _82
REMARK   31  A    between atoms: _87  and  _89
REMARK   32  A    between atoms: _89  and  _90
REMARK   33  A    between atoms: _89  and  _92
REMARK   34  A    between atoms: _92  and  _93
REMARK   35  A    between atoms: _93  and  _94
REMARK   36  A    between atoms: _97  and  _99
REMARK   37  A    between atoms: _99  and  _100
REMARK   38  A    between atoms: _99  and  _102
REMARK   39  A    between atoms: _102  and  _103
REMARK   40  A    between atoms: _106  and  _108
REMARK   41  A    between atoms: _108  and  _109
REMARK   42  A    between atoms: _111  and  _113
REMARK   43  A    between atoms: _113  and  _114
REMARK   44  A    between atoms: _113  and  _116
REMARK   45  A    between atoms: _119  and  _121
REMARK   46  A    between atoms: _121  and  _122
REMARK   47  A    between atoms: _121  and  _124
REMARK   48  A    between atoms: _124  and  _125
REMARK   49  A    between atoms: _127  and  _129
REMARK   50  A    between atoms: _129  and  _130
REMARK   51  A    between atoms: _129  and  _132
REMARK   52  A    between atoms: _132  and  _133
REMARK   53  A    between atoms: _136  and  _138
REMARK   54  A    between atoms: _138  and  _139
REMARK   55  A    between atoms: _141  and  _143
REMARK   56  A    between atoms: _143  and  _144
REMARK   57  A    between atoms: _143  and  _146
REMARK   58  A    between atoms: _146  and  _147
REMARK   59  A    between atoms: _150  and  _152
REMARK   60  A    between atoms: _152  and  _153
REMARK   61  A    between atoms: _152  and  _155
REMARK   62  A    between atoms: _155  and  _156
REMARK   63  A    between atoms: _159  and  _161
REMARK   64  A    between atoms: _161  and  _162
REMARK   65  A    between atoms: _161  and  _164
REMARK   66  A    between atoms: _164  and  _165
REMARK   67  A    between atoms: _171  and  _173
REMARK   68  A    between atoms: _173  and  _174
REMARK   69  A    between atoms: _173  and  _176
REMARK   70  A    between atoms: _176  and  _177
REMARK   71  A    between atoms: _180  and  _182
REMARK   72  A    between atoms: _182  and  _183
REMARK   73  A    between atoms: _182  and  _185
REMARK   74  A    between atoms: _185  and  _186
REMARK   75  A    between atoms: _191  and  _192
REMARK   76  A    between atoms: _194  and  _196
REMARK   77  A    between atoms: _196  and  _197
REMARK   78  A    between atoms: _199  and  _201
REMARK   79  A    between atoms: _201  and  _202
REMARK   80  A    between atoms: _201  and  _204
REMARK   81  A    between atoms: _204  and  _205
REMARK   82  A    between atoms: _211  and  _213
REMARK   83  A    between atoms: _213  and  _214
REMARK   84  A    between atoms: _213  and  _216
REMARK   85  A    between atoms: _219  and  _221
REMARK   86  A    between atoms: _221  and  _222
REMARK   87  A    between atoms: _221  and  _224
REMARK   88  A    between atoms: _224  and  _225
REMARK   89  A    between atoms: _225  and  _226
REMARK   90  A    between atoms: _231  and  _233
REMARK   91  A    between atoms: _233  and  _234
REMARK   92  A    between atoms: _233  and  _236
REMARK   93  A    between atoms: _236  and  _237
REMARK   94  A    between atoms: _240  and  _242
REMARK   95  A    between atoms: _242  and  _243
REMARK   96  A    between atoms: _242  and  _245
REMARK   97  A    between atoms: _245  and  _246
REMARK   98  A    between atoms: _246  and  _247
REMARK   99  A    between atoms: _247  and  _248
REMARK  100  A    between atoms: _257  and  _259
REMARK  101  A    between atoms: _259  and  _260
REMARK  102  A    between atoms: _259  and  _262
REMARK  103  A    between atoms: _262  and  _263
REMARK  104  A    between atoms: _266  and  _268
REMARK  105  A    between atoms: _268  and  _269
REMARK  106  A    between atoms: _268  and  _271
REMARK  107  A    between atoms: _271  and  _272
REMARK  108  A    between atoms: _274  and  _276
REMARK  109  A    between atoms: _276  and  _277
REMARK  110  A    between atoms: _276  and  _279
REMARK  111  A    between atoms: _279  and  _280
REMARK  112  A    between atoms: _284  and  _285
REMARK  113  A    between atoms: _290  and  _292
REMARK  114  A    between atoms: _292  and  _293
REMARK  115  A    between atoms: _295  and  _297
REMARK  116  A    between atoms: _297  and  _298
REMARK  117  A    between atoms: _297  and  _300
REMARK  118  A    between atoms: _300  and  _301
REMARK  119  A    between atoms: _304  and  _306
REMARK  120  A    between atoms: _306  and  _307
REMARK  121  A    between atoms: _309  and  _311
REMARK  122  A    between atoms: _311  and  _312
REMARK  123  A    between atoms: _311  and  _314
REMARK  124  A    between atoms: _314  and  _315
REMARK  125  A    between atoms: _318  and  _320
REMARK  126  A    between atoms: _320  and  _321
REMARK  127  A    between atoms: _320  and  _323
REMARK  128  A    between atoms: _323  and  _324
REMARK  129  A    between atoms: _324  and  _325
REMARK  130  A    between atoms: _325  and  _326
REMARK  131  A    between atoms: _326  and  _327
REMARK  132  A    between atoms: _331  and  _333
REMARK  133  A    between atoms: _333  and  _334
REMARK  134  A    between atoms: _336  and  _338
REMARK  135  A    between atoms: _338  and  _339
REMARK  136  A    between atoms: _338  and  _341
REMARK  137  A    between atoms: _341  and  _342
REMARK  138  A    between atoms: _352  and  _354
REMARK  139  A    between atoms: _354  and  _355
REMARK  140  A    between atoms: _354  and  _357
REMARK  141  A    between atoms: _357  and  _358
REMARK  142  A    between atoms: _360  and  _362
REMARK  143  A    between atoms: _362  and  _363
REMARK  144  A    between atoms: _362  and  _365
REMARK  145  A    between atoms: _365  and  _366
REMARK  146  A    between atoms: _366  and  _367
REMARK  147  A    between atoms: _370  and  _372
REMARK  148  A    between atoms: _372  and  _373
REMARK  149  A    between atoms: _376  and  _378
REMARK  150  A    between atoms: _378  and  _379
REMARK  151  A    between atoms: _378  and  _381
REMARK  152  A    between atoms: _381  and  _382
REMARK  153  A    between atoms: _387  and  _388
REMARK  154  A    between atoms: _390  and  _392
REMARK  155  A    between atoms: _392  and  _393
REMARK  156  A    between atoms: _392  and  _395
REMARK  157  A    between atoms: _395  and  _396
REMARK  158  A    between atoms: _399  and  _401
REMARK  159  A    between atoms: _401  and  _402
REMARK  160  A    between atoms: _401  and  _404
REMARK  161  A    between atoms: _404  and  _405
REMARK  162  A    between atoms: _408  and  _410
REMARK  163  A    between atoms: _410  and  _411
REMARK  164  A    between atoms: _410  and  _413
REMARK  165  A    between atoms: _413  and  _414
REMARK  166  A    between atoms: _416  and  _418
REMARK  167  A    between atoms: _418  and  _419
REMARK  168  A    between atoms: _418  and  _421
REMARK  169  A    between atoms: _421  and  _422
REMARK  170  A    between atoms: _427  and  _428
REMARK  171  A    between atoms: _430  and  _432
REMARK  172  A    between atoms: _432  and  _433
REMARK  173  A    between atoms: _432  and  _435
REMARK  174  A    between atoms: _435  and  _436
REMARK  175  A    between atoms: _439  and  _441
REMARK  176  A    between atoms: _441  and  _442
REMARK  177  A    between atoms: _441  and  _444
REMARK  178  A    between atoms: _444  and  _445
REMARK  179  A    between atoms: _448  and  _450
REMARK  180  A    between atoms: _450  and  _451
REMARK  181  A    between atoms: _450  and  _453
REMARK  182  A    between atoms: _453  and  _454
REMARK  183  A    between atoms: _457  and  _458
REMARK  184  A    between atoms: _463  and  _465
REMARK  185  A    between atoms: _465  and  _466
REMARK  186  A    between atoms: _469  and  _471
REMARK  187  A    between atoms: _471  and  _472
REMARK  188  A    between atoms: _471  and  _474
REMARK  189  A    between atoms: _474  and  _475
REMARK  190  A    between atoms: _480  and  _481
REMARK  191  A    between atoms: _483  and  _485
REMARK  192  A    between atoms: _485  and  _486
REMARK  193  A    between atoms: _485  and  _488
REMARK  194  A    between atoms: _488  and  _489
REMARK  195  A    between atoms: _494  and  _496
REMARK  196  A    between atoms: _496  and  _497
REMARK  197  A    between atoms: _496  and  _499
REMARK  198  A    between atoms: _499  and  _500
REMARK  199  A    between atoms: _503  and  _505
REMARK  200  A    between atoms: _505  and  _506
REMARK  201  A    between atoms: _505  and  _508
REMARK  202  A    between atoms: _508  and  _509
REMARK  203  A    between atoms: _509  and  _510
REMARK  204  A    between atoms: _515  and  _517
REMARK  205  A    between atoms: _517  and  _518
REMARK  206  A    between atoms: _517  and  _520
REMARK  207  A    between atoms: _520  and  _521
REMARK  208  A    between atoms: _521  and  _522
REMARK  209  A    between atoms: _525  and  _527
REMARK  210  A    between atoms: _527  and  _528
REMARK  211  A    between atoms: _527  and  _530
REMARK  212  A    between atoms: _530  and  _531
REMARK  213  A    between atoms: _535  and  _536
REMARK  214  A    between atoms: _541  and  _543
REMARK  215  A    between atoms: _543  and  _544
REMARK  216  A    between atoms: _543  and  _546
REMARK  217  A    between atoms: _546  and  _547
REMARK  218  A    between atoms: _550  and  _552
REMARK  219  A    between atoms: _552  and  _553
REMARK  220  A    between atoms: _555  and  _557
REMARK  221  A    between atoms: _557  and  _558
REMARK  222  A    between atoms: _557  and  _560
REMARK  223  A    between atoms: _560  and  _561
REMARK  224  A    between atoms: _566  and  _568
REMARK  225  A    between atoms: _568  and  _569
REMARK  226  A    between atoms: _568  and  _571
REMARK  227  A    between atoms: _571  and  _572
REMARK  228  A    between atoms: _582  and  _584
REMARK  229  A    between atoms: _584  and  _585
REMARK  230  A    between atoms: _584  and  _587
REMARK  231  A    between atoms: _587  and  _588
REMARK  232  A    between atoms: _588  and  _589
REMARK  233  A    between atoms: _591  and  _593
REMARK  234  A    between atoms: _593  and  _594
REMARK  235  A    between atoms: _593  and  _596
REMARK  236  A    between atoms: _596  and  _597
REMARK  237  A    between atoms: _602  and  _603
REMARK                            x       y       z     vdW  Elec       q    Type
REMARK                         _______ _______ _______ _____ _____    ______ ____
ROOT
ATOM      1  O   HOH     1       7.359  48.676 105.527  0.00  0.00    +0.000 OA
ENDROOT
TORSDOF 0
REMARK  Name = ../refined-set-2016/2qry/2qry_pocket.pdb
REMARK  237 active torsions:
REMARK  status: ('A' for Active; 'I' for Inactive)
REMARK    1  A    between atoms: _1  and  _3
REMARK    2  A    between atoms: _3  and  _4
REMARK    3  A    between atoms: _3  and  _6
REMARK    4  A    between atoms: _6  and  _7
REMARK    5  A    between atoms: _10  and  _12
REMARK    6  A    between atoms: _12  and  _13
REMARK    7  A    between atoms: _12  and  _15
REMARK    8  A    between atoms: _15  and  _16
REMARK    9  A    between atoms: _21  and  _22
REMARK   10  A    between atoms: _24  and  _26
REMARK   11  A    between atoms: _26  and  _27
REMARK   12  A    between atoms: _26  and  _29
REMARK   13  A    between atoms: _29  and  _30
REMARK   14  A    between atoms: _33  and  _35
REMARK   15  A    between atoms: _35  and  _36
REMARK   16  A    between atoms: _35  and  _38
REMARK   17  A    between atoms: _38  and  _39
REMARK   18  A    between atoms: _41  and  _43
REMARK   19  A    between atoms: _43  and  _44
REMARK   20  A    between atoms: _43  and  _46
REMARK   21  A    between atoms: _46  and  _47
REMARK   22  A    between atoms: _53  and  _55
REMARK   23  A    between atoms: _55  and  _56
REMARK   24  A    between atoms: _59  and  _61
REMARK   25  A    between atoms: _61  and  _62
REMARK   26  A    between atoms: _61  and  _64
REMARK   27  A    between atoms: _64  and  _65
REMARK   28  A    between atoms: _75  and  _77
REMARK   29  A    between atoms: _77  and  _78
REMARK   30  A    between atoms: _81  and  _82
REMARK   31  A    between atoms: _87  and  _89
REMARK   32  A    between atoms: _89  and  _90
REMARK   33  A    between atoms: _89  and  _92
REMARK   34  A    between atoms: _92  and  _93
REMARK   35  A    between atoms: _93  and  _94
REMARK   36  A    between atoms: _97  and  _99
REMARK   37  A    between atoms: _99  and  _100
REMARK   38  A    between atoms: _99  and  _102
REMARK   39  A    between atoms: _102  and  _103
REMARK   40  A    between atoms: _106  and  _108
REMARK   41  A    between atoms: _108  and  _109
REMARK   42  A    between atoms: _111  and  _113
REMARK   43  A    between atoms: _113  and  _114
REMARK   44  A    between atoms: _113  and  _116
REMARK   45  A    between atoms: _119  and  _121
REMARK   46  A    between atoms: _121  and  _122
REMARK   47  A    between atoms: _121  and  _124
REMARK   48  A    between atoms: _124  and  _125
REMARK   49  A    between atoms: _127  and  _129
REMARK   50  A    between atoms: _129  and  _130
REMARK   51  A    between atoms: _129  and  _132
REMARK   52  A    between atoms: _132  and  _133
REMARK   53  A    between atoms: _136  and  _138
REMARK   54  A    between atoms: _138  and  _139
REMARK   55  A    between atoms: _141  and  _143
REMARK   56  A    between atoms: _143  and  _144
REMARK   57  A    between atoms: _143  and  _146
REMARK   58  A    between atoms: _146  and  _147
REMARK   59  A    between atoms: _150  and  _152
REMARK   60  A    between atoms: _152  and  _153
REMARK   61  A    between atoms: _152  and  _155
REMARK   62  A    between atoms: _155  and  _156
REMARK   63  A    between atoms: _159  and  _161
REMARK   64  A    between atoms: _161  and  _162
REMARK   65  A    between atoms: _161  and  _164
REMARK   66  A    between atoms: _164  and  _165
REMARK   67  A    between atoms: _171  and  _173
REMARK   68  A    between atoms: _173  and  _174
REMARK   69  A    between atoms: _173  and  _176
REMARK   70  A    between atoms: _176  and  _177
REMARK   71  A    between atoms: _180  and  _182
REMARK   72  A    between atoms: _182  and  _183
REMARK   73  A    between atoms: _182  and  _185
REMARK   74  A    between atoms: _185  and  _186
REMARK   75  A    between atoms: _191  and  _192
REMARK   76  A    between atoms: _194  and  _196
REMARK   77  A    between atoms: _196  and  _197
REMARK   78  A    between atoms: _199  and  _201
REMARK   79  A    between atoms: _201  and  _202
REMARK   80  A    between atoms: _201  and  _204
REMARK   81  A    between atoms: _204  and  _205
REMARK   82  A    between atoms: _211  and  _213
REMARK   83  A    between atoms: _213  and  _214
REMARK   84  A    between atoms: _213  and  _216
REMARK   85  A    between atoms: _219  and  _221
REMARK   86  A    between atoms: _221  and  _222
REMARK   87  A    between atoms: _221  and  _224
REMARK   88  A    between atoms: _224  and  _225
REMARK   89  A    between atoms: _225  and  _226
REMARK   90  A    between atoms: _231  and  _233
REMARK   91  A    between atoms: _233  and  _234
REMARK   92  A    between atoms: _233  and  _236
REMARK   93  A    between atoms: _236  and  _237
REMARK   94  A    between atoms: _240  and  _242
REMARK   95  A    between atoms: _242  and  _243
REMARK   96  A    between atoms: _242  and  _245
REMARK   97  A    between atoms: _245  and  _246
REMARK   98  A    between atoms: _246  and  _247
REMARK   99  A    between atoms: _247  and  _248
REMARK  100  A    between atoms: _257  and  _259
REMARK  101  A    between atoms: _259  and  _260
REMARK  102  A    between atoms: _259  and  _262
REMARK  103  A    between atoms: _262  and  _263
REMARK  104  A    between atoms: _266  and  _268
REMARK  105  A    between atoms: _268  and  _269
REMARK  106  A    between atoms: _268  and  _271
REMARK  107  A    between atoms: _271  and  _272
REMARK  108  A    between atoms: _274  and  _276
REMARK  109  A    between atoms: _276  and  _277
REMARK  110  A    between atoms: _276  and  _279
REMARK  111  A    between atoms: _279  and  _280
REMARK  112  A    between atoms: _284  and  _285
REMARK  113  A    between atoms: _290  and  _292
REMARK  114  A    between atoms: _292  and  _293
REMARK  115  A    between atoms: _295  and  _297
REMARK  116  A    between atoms: _297  and  _298
REMARK  117  A    between atoms: _297  and  _300
REMARK  118  A    between atoms: _300  and  _301
REMARK  119  A    between atoms: _304  and  _306
REMARK  120  A    between atoms: _306  and  _307
REMARK  121  A    between atoms: _309  and  _311
REMARK  122  A    between atoms: _311  and  _312
REMARK  123  A    between atoms: _311  and  _314
REMARK  124  A    between atoms: _314  and  _315
REMARK  125  A    between atoms: _318  and  _320
REMARK  126  A    between atoms: _320  and  _321
REMARK  127  A    between atoms: _320  and  _323
REMARK  128  A    between atoms: _323  and  _324
REMARK  129  A    between atoms: _324  and  _325
REMARK  130  A    between atoms: _325  and  _326
REMARK  131  A    between atoms: _326  and  _327
REMARK  132  A    between atoms: _331  and  _333
REMARK  133  A    between atoms: _333  and  _334
REMARK  134  A    between atoms: _336  and  _338
REMARK  135  A    between atoms: _338  and  _339
REMARK  136  A    between atoms: _338  and  _341
REMARK  137  A    between atoms: _341  and  _342
REMARK  138  A    between atoms: _352  and  _354
REMARK  139  A    between atoms: _354  and  _355
REMARK  140  A    between atoms: _354  and  _357
REMARK  141  A    between atoms: _357  and  _358
REMARK  142  A    between atoms: _360  and  _362
REMARK  143  A    between atoms: _362  and  _363
REMARK  144  A    between atoms: _362  and  _365
REMARK  145  A    between atoms: _365  and  _366
REMARK  146  A    between atoms: _366  and  _367
REMARK  147  A    between atoms: _370  and  _372
REMARK  148  A    between atoms: _372  and  _373
REMARK  149  A    between atoms: _376  and  _378
REMARK  150  A    between atoms: _378  and  _379
REMARK  151  A    between atoms: _378  and  _381
REMARK  152  A    between atoms: _381  and  _382
REMARK  153  A    between atoms: _387  and  _388
REMARK  154  A    between atoms: _390  and  _392
REMARK  155  A    between atoms: _392  and  _393
REMARK  156  A    between atoms: _392  and  _395
REMARK  157  A    between atoms: _395  and  _396
REMARK  158  A    between atoms: _399  and  _401
REMARK  159  A    between atoms: _401  and  _402
REMARK  160  A    between atoms: _401  and  _404
REMARK  161  A    between atoms: _404  and  _405
REMARK  162  A    between atoms: _408  and  _410
REMARK  163  A    between atoms: _410  and  _411
REMARK  164  A    between atoms: _410  and  _413
REMARK  165  A    between atoms: _413  and  _414
REMARK  166  A    between atoms: _416  and  _418
REMARK  167  A    between atoms: _418  and  _419
REMARK  168  A    between atoms: _418  and  _421
REMARK  169  A    between atoms: _421  and  _422
REMARK  170  A    between atoms: _427  and  _428
REMARK  171  A    between atoms: _430  and  _432
REMARK  172  A    between atoms: _432  and  _433
REMARK  173  A    between atoms: _432  and  _435
REMARK  174  A    between atoms: _435  and  _436
REMARK  175  A    between atoms: _439  and  _441
REMARK  176  A    between atoms: _441  and  _442
REMARK  177  A    between atoms: _441  and  _444
REMARK  178  A    between atoms: _444  and  _445
REMARK  179  A    between atoms: _448  and  _450
REMARK  180  A    between atoms: _450  and  _451
REMARK  181  A    between atoms: _450  and  _453
REMARK  182  A    between atoms: _453  and  _454
REMARK  183  A    between atoms: _457  and  _458
REMARK  184  A    between atoms: _463  and  _465
REMARK  185  A    between atoms: _465  and  _466
REMARK  186  A    between atoms: _469  and  _471
REMARK  187  A    between atoms: _471  and  _472
REMARK  188  A    between atoms: _471  and  _474
REMARK  189  A    between atoms: _474  and  _475
REMARK  190  A    between atoms: _480  and  _481
REMARK  191  A    between atoms: _483  and  _485
REMARK  192  A    between atoms: _485  and  _486
REMARK  193  A    between atoms: _485  and  _488
REMARK  194  A    between atoms: _488  and  _489
REMARK  195  A    between atoms: _494  and  _496
REMARK  196  A    between atoms: _496  and  _497
REMARK  197  A    between atoms: _496  and  _499
REMARK  198  A    between atoms: _499  and  _500
REMARK  199  A    between atoms: _503  and  _505
REMARK  200  A    between atoms: _505  and  _506
REMARK  201  A    between atoms: _505  and  _508
REMARK  202  A    between atoms: _508  and  _509
REMARK  203  A    between atoms: _509  and  _510
REMARK  204  A    between atoms: _515  and  _517
REMARK  205  A    between atoms: _517  and  _518
REMARK  206  A    between atoms: _517  and  _520
REMARK  207  A    between atoms: _520  and  _521
REMARK  208  A    between atoms: _521  and  _522
REMARK  209  A    between atoms: _525  and  _527
REMARK  210  A    between atoms: _527  and  _528
REMARK  211  A    between atoms: _527  and  _530
REMARK  212  A    between atoms: _530  and  _531
REMARK  213  A    between atoms: _535  and  _536
REMARK  214  A    between atoms: _541  and  _543
REMARK  215  A    between atoms: _543  and  _544
REMARK  216  A    between atoms: _543  and  _546
REMARK  217  A    between atoms: _546  and  _547
REMARK  218  A    between atoms: _550  and  _552
REMARK  219  A    between atoms: _552  and  _553
REMARK  220  A    between atoms: _555  and  _557
REMARK  221  A    between atoms: _557  and  _558
REMARK  222  A    between atoms: _557  and  _560
REMARK  223  A    between atoms: _560  and  _561
REMARK  224  A    between atoms: _566  and  _568
REMARK  225  A    between atoms: _568  and  _569
REMARK  226  A    between atoms: _568  and  _571
REMARK  227  A    between atoms: _571  and  _572
REMARK  228  A    between atoms: _582  and  _584
REMARK  229  A    between atoms: _584  and  _585
REMARK  230  A    between atoms: _584  and  _587
REMARK  231  A    between atoms: _587  and  _588
REMARK  232  A    between atoms: _588  and  _589
REMARK  233  A    between atoms: _591  and  _593
REMARK  234  A    between atoms: _593  and  _594
REMARK  235  A    between atoms: _593  and  _596
REMARK  236  A    between atoms: _596  and  _597
REMARK  237  A    between atoms: _602  and  _603
REMARK                            x       y       z     vdW  Elec       q    Type
REMARK                         _______ _______ _______ _____ _____    ______ ____
ROOT
ATOM      1  O   HOH     1       9.583  46.100 106.782  0.00  0.00    +0.000 OA
ENDROOT
TORSDOF 0
REMARK  Name = ../refined-set-2016/2qry/2qry_pocket.pdb
REMARK  237 active torsions:
REMARK  status: ('A' for Active; 'I' for Inactive)
REMARK    1  A    between atoms: _1  and  _3
REMARK    2  A    between atoms: _3  and  _4
REMARK    3  A    between atoms: _3  and  _6
REMARK    4  A    between atoms: _6  and  _7
REMARK    5  A    between atoms: _10  and  _12
REMARK    6  A    between atoms: _12  and  _13
REMARK    7  A    between atoms: _12  and  _15
REMARK    8  A    between atoms: _15  and  _16
REMARK    9  A    between atoms: _21  and  _22
REMARK   10  A    between atoms: _24  and  _26
REMARK   11  A    between atoms: _26  and  _27
REMARK   12  A    between atoms: _26  and  _29
REMARK   13  A    between atoms: _29  and  _30
REMARK   14  A    between atoms: _33  and  _35
REMARK   15  A    between atoms: _35  and  _36
REMARK   16  A    between atoms: _35  and  _38
REMARK   17  A    between atoms: _38  and  _39
REMARK   18  A    between atoms: _41  and  _43
REMARK   19  A    between atoms: _43  and  _44
REMARK   20  A    between atoms: _43  and  _46
REMARK   21  A    between atoms: _46  and  _47
REMARK   22  A    between atoms: _53  and  _55
REMARK   23  A    between atoms: _55  and  _56
REMARK   24  A    between atoms: _59  and  _61
REMARK   25  A    between atoms: _61  and  _62
REMARK   26  A    between atoms: _61  and  _64
REMARK   27  A    between atoms: _64  and  _65
REMARK   28  A    between atoms: _75  and  _77
REMARK   29  A    between atoms: _77  and  _78
REMARK   30  A    between atoms: _81  and  _82
REMARK   31  A    between atoms: _87  and  _89
REMARK   32  A    between atoms: _89  and  _90
REMARK   33  A    between atoms: _89  and  _92
REMARK   34  A    between atoms: _92  and  _93
REMARK   35  A    between atoms: _93  and  _94
REMARK   36  A    between atoms: _97  and  _99
REMARK   37  A    between atoms: _99  and  _100
REMARK   38  A    between atoms: _99  and  _102
REMARK   39  A    between atoms: _102  and  _103
REMARK   40  A    between atoms: _106  and  _108
REMARK   41  A    between atoms: _108  and  _109
REMARK   42  A    between atoms: _111  and  _113
REMARK   43  A    between atoms: _113  and  _114
REMARK   44  A    between atoms: _113  and  _116
REMARK   45  A    between atoms: _119  and  _121
REMARK   46  A    between atoms: _121  and  _122
REMARK   47  A    between atoms: _121  and  _124
REMARK   48  A    between atoms: _124  and  _125
REMARK   49  A    between atoms: _127  and  _129
REMARK   50  A    between atoms: _129  and  _130
REMARK   51  A    between atoms: _129  and  _132
REMARK   52  A    between atoms: _132  and  _133
REMARK   53  A    between atoms: _136  and  _138
REMARK   54  A    between atoms: _138  and  _139
REMARK   55  A    between atoms: _141  and  _143
REMARK   56  A    between atoms: _143  and  _144
REMARK   57  A    between atoms: _143  and  _146
REMARK   58  A    between atoms: _146  and  _147
REMARK   59  A    between atoms: _150  and  _152
REMARK   60  A    between atoms: _152  and  _153
REMARK   61  A    between atoms: _152  and  _155
REMARK   62  A    between atoms: _155  and  _156
REMARK   63  A    between atoms: _159  and  _161
REMARK   64  A    between atoms: _161  and  _162
REMARK   65  A    between atoms: _161  and  _164
REMARK   66  A    between atoms: _164  and  _165
REMARK   67  A    between atoms: _171  and  _173
REMARK   68  A    between atoms: _173  and  _174
REMARK   69  A    between atoms: _173  and  _176
REMARK   70  A    between atoms: _176  and  _177
REMARK   71  A    between atoms: _180  and  _182
REMARK   72  A    between atoms: _182  and  _183
REMARK   73  A    between atoms: _182  and  _185
REMARK   74  A    between atoms: _185  and  _186
REMARK   75  A    between atoms: _191  and  _192
REMARK   76  A    between atoms: _194  and  _196
REMARK   77  A    between atoms: _196  and  _197
REMARK   78  A    between atoms: _199  and  _201
REMARK   79  A    between atoms: _201  and  _202
REMARK   80  A    between atoms: _201  and  _204
REMARK   81  A    between atoms: _204  and  _205
REMARK   82  A    between atoms: _211  and  _213
REMARK   83  A    between atoms: _213  and  _214
REMARK   84  A    between atoms: _213  and  _216
REMARK   85  A    between atoms: _219  and  _221
REMARK   86  A    between atoms: _221  and  _222
REMARK   87  A    between atoms: _221  and  _224
REMARK   88  A    between atoms: _224  and  _225
REMARK   89  A    between atoms: _225  and  _226
REMARK   90  A    between atoms: _231  and  _233
REMARK   91  A    between atoms: _233  and  _234
REMARK   92  A    between atoms: _233  and  _236
REMARK   93  A    between atoms: _236  and  _237
REMARK   94  A    between atoms: _240  and  _242
REMARK   95  A    between atoms: _242  and  _243
REMARK   96  A    between atoms: _242  and  _245
REMARK   97  A    between atoms: _245  and  _246
REMARK   98  A    between atoms: _246  and  _247
REMARK   99  A    between atoms: _247  and  _248
REMARK  100  A    between atoms: _257  and  _259
REMARK  101  A    between atoms: _259  and  _260
REMARK  102  A    between atoms: _259  and  _262
REMARK  103  A    between atoms: _262  and  _263
REMARK  104  A    between atoms: _266  and  _268
REMARK  105  A    between atoms: _268  and  _269
REMARK  106  A    between atoms: _268  and  _271
REMARK  107  A    between atoms: _271  and  _272
REMARK  108  A    between atoms: _274  and  _276
REMARK  109  A    between atoms: _276  and  _277
REMARK  110  A    between atoms: _276  and  _279
REMARK  111  A    between atoms: _279  and  _280
REMARK  112  A    between atoms: _284  and  _285
REMARK  113  A    between atoms: _290  and  _292
REMARK  114  A    between atoms: _292  and  _293
REMARK  115  A    between atoms: _295  and  _297
REMARK  116  A    between atoms: _297  and  _298
REMARK  117  A    between atoms: _297  and  _300
REMARK  118  A    between atoms: _300  and  _301
REMARK  119  A    between atoms: _304  and  _306
REMARK  120  A    between atoms: _306  and  _307
REMARK  121  A    between atoms: _309  and  _311
REMARK  122  A    between atoms: _311  and  _312
REMARK  123  A    between atoms: _311  and  _314
REMARK  124  A    between atoms: _314  and  _315
REMARK  125  A    between atoms: _318  and  _320
REMARK  126  A    between atoms: _320  and  _321
REMARK  127  A    between atoms: _320  and  _323
REMARK  128  A    between atoms: _323  and  _324
REMARK  129  A    between atoms: _324  and  _325
REMARK  130  A    between atoms: _325  and  _326
REMARK  131  A    between atoms: _326  and  _327
REMARK  132  A    between atoms: _331  and  _333
REMARK  133  A    between atoms: _333  and  _334
REMARK  134  A    between atoms: _336  and  _338
REMARK  135  A    between atoms: _338  and  _339
REMARK  136  A    between atoms: _338  and  _341
REMARK  137  A    between atoms: _341  and  _342
REMARK  138  A    between atoms: _352  and  _354
REMARK  139  A    between atoms: _354  and  _355
REMARK  140  A    between atoms: _354  and  _357
REMARK  141  A    between atoms: _357  and  _358
REMARK  142  A    between atoms: _360  and  _362
REMARK  143  A    between atoms: _362  and  _363
REMARK  144  A    between atoms: _362  and  _365
REMARK  145  A    between atoms: _365  and  _366
REMARK  146  A    between atoms: _366  and  _367
REMARK  147  A    between atoms: _370  and  _372
REMARK  148  A    between atoms: _372  and  _373
REMARK  149  A    between atoms: _376  and  _378
REMARK  150  A    between atoms: _378  and  _379
REMARK  151  A    between atoms: _378  and  _381
REMARK  152  A    between atoms: _381  and  _382
REMARK  153  A    between atoms: _387  and  _388
REMARK  154  A    between atoms: _390  and  _392
REMARK  155  A    between atoms: _392  and  _393
REMARK  156  A    between atoms: _392  and  _395
REMARK  157  A    between atoms: _395  and  _396
REMARK  158  A    between atoms: _399  and  _401
REMARK  159  A    between atoms: _401  and  _402
REMARK  160  A    between atoms: _401  and  _404
REMARK  161  A    between atoms: _404  and  _405
REMARK  162  A    between atoms: _408  and  _410
REMARK  163  A    between atoms: _410  and  _411
REMARK  164  A    between atoms: _410  and  _413
REMARK  165  A    between atoms: _413  and  _414
REMARK  166  A    between atoms: _416  and  _418
REMARK  167  A    between atoms: _418  and  _419
REMARK  168  A    between atoms: _418  and  _421
REMARK  169  A    between atoms: _421  and  _422
REMARK  170  A    between atoms: _427  and  _428
REMARK  171  A    between atoms: _430  and  _432
REMARK  172  A    between atoms: _432  and  _433
REMARK  173  A    between atoms: _432  and  _435
REMARK  174  A    between atoms: _435  and  _436
REMARK  175  A    between atoms: _439  and  _441
REMARK  176  A    between atoms: _441  and  _442
REMARK  177  A    between atoms: _441  and  _444
REMARK  178  A    between atoms: _444  and  _445
REMARK  179  A    between atoms: _448  and  _450
REMARK  180  A    between atoms: _450  and  _451
REMARK  181  A    between atoms: _450  and  _453
REMARK  182  A    between atoms: _453  and  _454
REMARK  183  A    between atoms: _457  and  _458
REMARK  184  A    between atoms: _463  and  _465
REMARK  185  A    between atoms: _465  and  _466
REMARK  186  A    between atoms: _469  and  _471
REMARK  187  A    between atoms: _471  and  _472
REMARK  188  A    between atoms: _471  and  _474
REMARK  189  A    between atoms: _474  and  _475
REMARK  190  A    between atoms: _480  and  _481
REMARK  191  A    between atoms: _483  and  _485
REMARK  192  A    between atoms: _485  and  _486
REMARK  193  A    between atoms: _485  and  _488
REMARK  194  A    between atoms: _488  and  _489
REMARK  195  A    between atoms: _494  and  _496
REMARK  196  A    between atoms: _496  and  _497
REMARK  197  A    between atoms: _496  and  _499
REMARK  198  A    between atoms: _499  and  _500
REMARK  199  A    between atoms: _503  and  _505
REMARK  200  A    between atoms: _505  and  _506
REMARK  201  A    between atoms: _505  and  _508
REMARK  202  A    between atoms: _508  and  _509
REMARK  203  A    between atoms: _509  and  _510
REMARK  204  A    between atoms: _515  and  _517
REMARK  205  A    between atoms: _517  and  _518
REMARK  206  A    between atoms: _517  and  _520
REMARK  207  A    between atoms: _520  and  _521
REMARK  208  A    between atoms: _521  and  _522
REMARK  209  A    between atoms: _525  and  _527
REMARK  210  A    between atoms: _527  and  _528
REMARK  211  A    between atoms: _527  and  _530
REMARK  212  A    between atoms: _530  and  _531
REMARK  213  A    between atoms: _535  and  _536
REMARK  214  A    between atoms: _541  and  _543
REMARK  215  A    between atoms: _543  and  _544
REMARK  216  A    between atoms: _543  and  _546
REMARK  217  A    between atoms: _546  and  _547
REMARK  218  A    between atoms: _550  and  _552
REMARK  219  A    between atoms: _552  and  _553
REMARK  220  A    between atoms: _555  and  _557
REMARK  221  A    between atoms: _557  and  _558
REMARK  222  A    between atoms: _557  and  _560
REMARK  223  A    between atoms: _560  and  _561
REMARK  224  A    between atoms: _566  and  _568
REMARK  225  A    between atoms: _568  and  _569
REMARK  226  A    between atoms: _568  and  _571
REMARK  227  A    between atoms: _571  and  _572
REMARK  228  A    between atoms: _582  and  _584
REMARK  229  A    between atoms: _584  and  _585
REMARK  230  A    between atoms: _584  and  _587
REMARK  231  A    between atoms: _587  and  _588
REMARK  232  A    between atoms: _588  and  _589
REMARK  233  A    between atoms: _591  and  _593
REMARK  234  A    between atoms: _593  and  _594
REMARK  235  A    between atoms: _593  and  _596
REMARK  236  A    between atoms: _596  and  _597
REMARK  237  A    between atoms: _602  and  _603
REMARK                            x       y       z     vdW  Elec       q    Type
REMARK                         _______ _______ _______ _____ _____    ______ ____
ROOT
ATOM      1  O   HOH     1      16.056  58.266 107.185  0.00  0.00    +0.000 OA
ENDROOT
TORSDOF 0
REMARK  Name = ../refined-set-2016/2qry/2qry_pocket.pdb
REMARK  237 active torsions:
REMARK  status: ('A' for Active; 'I' for Inactive)
REMARK    1  A    between atoms: _1  and  _3
REMARK    2  A    between atoms: _3  and  _4
REMARK    3  A    between atoms: _3  and  _6
REMARK    4  A    between atoms: _6  and  _7
REMARK    5  A    between atoms: _10  and  _12
REMARK    6  A    between atoms: _12  and  _13
REMARK    7  A    between atoms: _12  and  _15
REMARK    8  A    between atoms: _15  and  _16
REMARK    9  A    between atoms: _21  and  _22
REMARK   10  A    between atoms: _24  and  _26
REMARK   11  A    between atoms: _26  and  _27
REMARK   12  A    between atoms: _26  and  _29
REMARK   13  A    between atoms: _29  and  _30
REMARK   14  A    between atoms: _33  and  _35
REMARK   15  A    between atoms: _35  and  _36
REMARK   16  A    between atoms: _35  and  _38
REMARK   17  A    between atoms: _38  and  _39
REMARK   18  A    between atoms: _41  and  _43
REMARK   19  A    between atoms: _43  and  _44
REMARK   20  A    between atoms: _43  and  _46
REMARK   21  A    between atoms: _46  and  _47
REMARK   22  A    between atoms: _53  and  _55
REMARK   23  A    between atoms: _55  and  _56
REMARK   24  A    between atoms: _59  and  _61
REMARK   25  A    between atoms: _61  and  _62
REMARK   26  A    between atoms: _61  and  _64
REMARK   27  A    between atoms: _64  and  _65
REMARK   28  A    between atoms: _75  and  _77
REMARK   29  A    between atoms: _77  and  _78
REMARK   30  A    between atoms: _81  and  _82
REMARK   31  A    between atoms: _87  and  _89
REMARK   32  A    between atoms: _89  and  _90
REMARK   33  A    between atoms: _89  and  _92
REMARK   34  A    between atoms: _92  and  _93
REMARK   35  A    between atoms: _93  and  _94
REMARK   36  A    between atoms: _97  and  _99
REMARK   37  A    between atoms: _99  and  _100
REMARK   38  A    between atoms: _99  and  _102
REMARK   39  A    between atoms: _102  and  _103
REMARK   40  A    between atoms: _106  and  _108
REMARK   41  A    between atoms: _108  and  _109
REMARK   42  A    between atoms: _111  and  _113
REMARK   43  A    between atoms: _113  and  _114
REMARK   44  A    between atoms: _113  and  _116
REMARK   45  A    between atoms: _119  and  _121
REMARK   46  A    between atoms: _121  and  _122
REMARK   47  A    between atoms: _121  and  _124
REMARK   48  A    between atoms: _124  and  _125
REMARK   49  A    between atoms: _127  and  _129
REMARK   50  A    between atoms: _129  and  _130
REMARK   51  A    between atoms: _129  and  _132
REMARK   52  A    between atoms: _132  and  _133
REMARK   53  A    between atoms: _136  and  _138
REMARK   54  A    between atoms: _138  and  _139
REMARK   55  A    between atoms: _141  and  _143
REMARK   56  A    between atoms: _143  and  _144
REMARK   57  A    between atoms: _143  and  _146
REMARK   58  A    between atoms: _146  and  _147
REMARK   59  A    between atoms: _150  and  _152
REMARK   60  A    between atoms: _152  and  _153
REMARK   61  A    between atoms: _152  and  _155
REMARK   62  A    between atoms: _155  and  _156
REMARK   63  A    between atoms: _159  and  _161
REMARK   64  A    between atoms: _161  and  _162
REMARK   65  A    between atoms: _161  and  _164
REMARK   66  A    between atoms: _164  and  _165
REMARK   67  A    between atoms: _171  and  _173
REMARK   68  A    between atoms: _173  and  _174
REMARK   69  A    between atoms: _173  and  _176
REMARK   70  A    between atoms: _176  and  _177
REMARK   71  A    between atoms: _180  and  _182
REMARK   72  A    between atoms: _182  and  _183
REMARK   73  A    between atoms: _182  and  _185
REMARK   74  A    between atoms: _185  and  _186
REMARK   75  A    between atoms: _191  and  _192
REMARK   76  A    between atoms: _194  and  _196
REMARK   77  A    between atoms: _196  and  _197
REMARK   78  A    between atoms: _199  and  _201
REMARK   79  A    between atoms: _201  and  _202
REMARK   80  A    between atoms: _201  and  _204
REMARK   81  A    between atoms: _204  and  _205
REMARK   82  A    between atoms: _211  and  _213
REMARK   83  A    between atoms: _213  and  _214
REMARK   84  A    between atoms: _213  and  _216
REMARK   85  A    between atoms: _219  and  _221
REMARK   86  A    between atoms: _221  and  _222
REMARK   87  A    between atoms: _221  and  _224
REMARK   88  A    between atoms: _224  and  _225
REMARK   89  A    between atoms: _225  and  _226
REMARK   90  A    between atoms: _231  and  _233
REMARK   91  A    between atoms: _233  and  _234
REMARK   92  A    between atoms: _233  and  _236
REMARK   93  A    between atoms: _236  and  _237
REMARK   94  A    between atoms: _240  and  _242
REMARK   95  A    between atoms: _242  and  _243
REMARK   96  A    between atoms: _242  and  _245
REMARK   97  A    between atoms: _245  and  _246
REMARK   98  A    between atoms: _246  and  _247
REMARK   99  A    between atoms: _247  and  _248
REMARK  100  A    between atoms: _257  and  _259
REMARK  101  A    between atoms: _259  and  _260
REMARK  102  A    between atoms: _259  and  _262
REMARK  103  A    between atoms: _262  and  _263
REMARK  104  A    between atoms: _266  and  _268
REMARK  105  A    between atoms: _268  and  _269
REMARK  106  A    between atoms: _268  and  _271
REMARK  107  A    between atoms: _271  and  _272
REMARK  108  A    between atoms: _274  and  _276
REMARK  109  A    between atoms: _276  and  _277
REMARK  110  A    between atoms: _276  and  _279
REMARK  111  A    between atoms: _279  and  _280
REMARK  112  A    between atoms: _284  and  _285
REMARK  113  A    between atoms: _290  and  _292
REMARK  114  A    between atoms: _292  and  _293
REMARK  115  A    between atoms: _295  and  _297
REMARK  116  A    between atoms: _297  and  _298
REMARK  117  A    between atoms: _297  and  _300
REMARK  118  A    between atoms: _300  and  _301
REMARK  119  A    between atoms: _304  and  _306
REMARK  120  A    between atoms: _306  and  _307
REMARK  121  A    between atoms: _309  and  _311
REMARK  122  A    between atoms: _311  and  _312
REMARK  123  A    between atoms: _311  and  _314
REMARK  124  A    between atoms: _314  and  _315
REMARK  125  A    between atoms: _318  and  _320
REMARK  126  A    between atoms: _320  and  _321
REMARK  127  A    between atoms: _320  and  _323
REMARK  128  A    between atoms: _323  and  _324
REMARK  129  A    between atoms: _324  and  _325
REMARK  130  A    between atoms: _325  and  _326
REMARK  131  A    between atoms: _326  and  _327
REMARK  132  A    between atoms: _331  and  _333
REMARK  133  A    between atoms: _333  and  _334
REMARK  134  A    between atoms: _336  and  _338
REMARK  135  A    between atoms: _338  and  _339
REMARK  136  A    between atoms: _338  and  _341
REMARK  137  A    between atoms: _341  and  _342
REMARK  138  A    between atoms: _352  and  _354
REMARK  139  A    between atoms: _354  and  _355
REMARK  140  A    between atoms: _354  and  _357
REMARK  141  A    between atoms: _357  and  _358
REMARK  142  A    between atoms: _360  and  _362
REMARK  143  A    between atoms: _362  and  _363
REMARK  144  A    between atoms: _362  and  _365
REMARK  145  A    between atoms: _365  and  _366
REMARK  146  A    between atoms: _366  and  _367
REMARK  147  A    between atoms: _370  and  _372
REMARK  148  A    between atoms: _372  and  _373
REMARK  149  A    between atoms: _376  and  _378
REMARK  150  A    between atoms: _378  and  _379
REMARK  151  A    between atoms: _378  and  _381
REMARK  152  A    between atoms: _381  and  _382
REMARK  153  A    between atoms: _387  and  _388
REMARK  154  A    between atoms: _390  and  _392
REMARK  155  A    between atoms: _392  and  _393
REMARK  156  A    between atoms: _392  and  _395
REMARK  157  A    between atoms: _395  and  _396
REMARK  158  A    between atoms: _399  and  _401
REMARK  159  A    between atoms: _401  and  _402
REMARK  160  A    between atoms: _401  and  _404
REMARK  161  A    between atoms: _404  and  _405
REMARK  162  A    between atoms: _408  and  _410
REMARK  163  A    between atoms: _410  and  _411
REMARK  164  A    between atoms: _410  and  _413
REMARK  165  A    between atoms: _413  and  _414
REMARK  166  A    between atoms: _416  and  _418
REMARK  167  A    between atoms: _418  and  _419
REMARK  168  A    between atoms: _418  and  _421
REMARK  169  A    between atoms: _421  and  _422
REMARK  170  A    between atoms: _427  and  _428
REMARK  171  A    between atoms: _430  and  _432
REMARK  172  A    between atoms: _432  and  _433
REMARK  173  A    between atoms: _432  and  _435
REMARK  174  A    between atoms: _435  and  _436
REMARK  175  A    between atoms: _439  and  _441
REMARK  176  A    between atoms: _441  and  _442
REMARK  177  A    between atoms: _441  and  _444
REMARK  178  A    between atoms: _444  and  _445
REMARK  179  A    between atoms: _448  and  _450
REMARK  180  A    between atoms: _450  and  _451
REMARK  181  A    between atoms: _450  and  _453
REMARK  182  A    between atoms: _453  and  _454
REMARK  183  A    between atoms: _457  and  _458
REMARK  184  A    between atoms: _463  and  _465
REMARK  185  A    between atoms: _465  and  _466
REMARK  186  A    between atoms: _469  and  _471
REMARK  187  A    between atoms: _471  and  _472
REMARK  188  A    between atoms: _471  and  _474
REMARK  189  A    between atoms: _474  and  _475
REMARK  190  A    between atoms: _480  and  _481
REMARK  191  A    between atoms: _483  and  _485
REMARK  192  A    between atoms: _485  and  _486
REMARK  193  A    between atoms: _485  and  _488
REMARK  194  A    between atoms: _488  and  _489
REMARK  195  A    between atoms: _494  and  _496
REMARK  196  A    between atoms: _496  and  _497
REMARK  197  A    between atoms: _496  and  _499
REMARK  198  A    between atoms: _499  and  _500
REMARK  199  A    between atoms: _503  and  _505
REMARK  200  A    between atoms: _505  and  _506
REMARK  201  A    between atoms: _505  and  _508
REMARK  202  A    between atoms: _508  and  _509
REMARK  203  A    between atoms: _509  and  _510
REMARK  204  A    between atoms: _515  and  _517
REMARK  205  A    between atoms: _517  and  _518
REMARK  206  A    between atoms: _517  and  _520
REMARK  207  A    between atoms: _520  and  _521
REMARK  208  A    between atoms: _521  and  _522
REMARK  209  A    between atoms: _525  and  _527
REMARK  210  A    between atoms: _527  and  _528
REMARK  211  A    between atoms: _527  and  _530
REMARK  212  A    between atoms: _530  and  _531
REMARK  213  A    between atoms: _535  and  _536
REMARK  214  A    between atoms: _541  and  _543
REMARK  215  A    between atoms: _543  and  _544
REMARK  216  A    between atoms: _543  and  _546
REMARK  217  A    between atoms: _546  and  _547
REMARK  218  A    between atoms: _550  and  _552
REMARK  219  A    between atoms: _552  and  _553
REMARK  220  A    between atoms: _555  and  _557
REMARK  221  A    between atoms: _557  and  _558
REMARK  222  A    between atoms: _557  and  _560
REMARK  223  A    between atoms: _560  and  _561
REMARK  224  A    between atoms: _566  and  _568
REMARK  225  A    between atoms: _568  and  _569
REMARK  226  A    between atoms: _568  and  _571
REMARK  227  A    between atoms: _571  and  _572
REMARK  228  A    between atoms: _582  and  _584
REMARK  229  A    between atoms: _584  and  _585
REMARK  230  A    between atoms: _584  and  _587
REMARK  231  A    between atoms: _587  and  _588
REMARK  232  A    between atoms: _588  and  _589
REMARK  233  A    between atoms: _591  and  _593
REMARK  234  A    between atoms: _593  and  _594
REMARK  235  A    between atoms: _593  and  _596
REMARK  236  A    between atoms: _596  and  _597
REMARK  237  A    between atoms: _602  and  _603
REMARK                            x       y       z     vdW  Elec       q    Type
REMARK                         _______ _______ _______ _____ _____    ______ ____
ROOT
ATOM      1  O   HOH     1      12.223  58.054 106.225  0.00  0.00    +0.000 OA
ENDROOT
TORSDOF 0
REMARK  Name = ../refined-set-2016/2qry/2qry_pocket.pdb
REMARK  237 active torsions:
REMARK  status: ('A' for Active; 'I' for Inactive)
REMARK    1  A    between atoms: _1  and  _3
REMARK    2  A    between atoms: _3  and  _4
REMARK    3  A    between atoms: _3  and  _6
REMARK    4  A    between atoms: _6  and  _7
REMARK    5  A    between atoms: _10  and  _12
REMARK    6  A    between atoms: _12  and  _13
REMARK    7  A    between atoms: _12  and  _15
REMARK    8  A    between atoms: _15  and  _16
REMARK    9  A    between atoms: _21  and  _22
REMARK   10  A    between atoms: _24  and  _26
REMARK   11  A    between atoms: _26  and  _27
REMARK   12  A    between atoms: _26  and  _29
REMARK   13  A    between atoms: _29  and  _30
REMARK   14  A    between atoms: _33  and  _35
REMARK   15  A    between atoms: _35  and  _36
REMARK   16  A    between atoms: _35  and  _38
REMARK   17  A    between atoms: _38  and  _39
REMARK   18  A    between atoms: _41  and  _43
REMARK   19  A    between atoms: _43  and  _44
REMARK   20  A    between atoms: _43  and  _46
REMARK   21  A    between atoms: _46  and  _47
REMARK   22  A    between atoms: _53  and  _55
REMARK   23  A    between atoms: _55  and  _56
REMARK   24  A    between atoms: _59  and  _61
REMARK   25  A    between atoms: _61  and  _62
REMARK   26  A    between atoms: _61  and  _64
REMARK   27  A    between atoms: _64  and  _65
REMARK   28  A    between atoms: _75  and  _77
REMARK   29  A    between atoms: _77  and  _78
REMARK   30  A    between atoms: _81  and  _82
REMARK   31  A    between atoms: _87  and  _89
REMARK   32  A    between atoms: _89  and  _90
REMARK   33  A    between atoms: _89  and  _92
REMARK   34  A    between atoms: _92  and  _93
REMARK   35  A    between atoms: _93  and  _94
REMARK   36  A    between atoms: _97  and  _99
REMARK   37  A    between atoms: _99  and  _100
REMARK   38  A    between atoms: _99  and  _102
REMARK   39  A    between atoms: _102  and  _103
REMARK   40  A    between atoms: _106  and  _108
REMARK   41  A    between atoms: _108  and  _109
REMARK   42  A    between atoms: _111  and  _113
REMARK   43  A    between atoms: _113  and  _114
REMARK   44  A    between atoms: _113  and  _116
REMARK   45  A    between atoms: _119  and  _121
REMARK   46  A    between atoms: _121  and  _122
REMARK   47  A    between atoms: _121  and  _124
REMARK   48  A    between atoms: _124  and  _125
REMARK   49  A    between atoms: _127  and  _129
REMARK   50  A    between atoms: _129  and  _130
REMARK   51  A    between atoms: _129  and  _132
REMARK   52  A    between atoms: _132  and  _133
REMARK   53  A    between atoms: _136  and  _138
REMARK   54  A    between atoms: _138  and  _139
REMARK   55  A    between atoms: _141  and  _143
REMARK   56  A    between atoms: _143  and  _144
REMARK   57  A    between atoms: _143  and  _146
REMARK   58  A    between atoms: _146  and  _147
REMARK   59  A    between atoms: _150  and  _152
REMARK   60  A    between atoms: _152  and  _153
REMARK   61  A    between atoms: _152  and  _155
REMARK   62  A    between atoms: _155  and  _156
REMARK   63  A    between atoms: _159  and  _161
REMARK   64  A    between atoms: _161  and  _162
REMARK   65  A    between atoms: _161  and  _164
REMARK   66  A    between atoms: _164  and  _165
REMARK   67  A    between atoms: _171  and  _173
REMARK   68  A    between atoms: _173  and  _174
REMARK   69  A    between atoms: _173  and  _176
REMARK   70  A    between atoms: _176  and  _177
REMARK   71  A    between atoms: _180  and  _182
REMARK   72  A    between atoms: _182  and  _183
REMARK   73  A    between atoms: _182  and  _185
REMARK   74  A    between atoms: _185  and  _186
REMARK   75  A    between atoms: _191  and  _192
REMARK   76  A    between atoms: _194  and  _196
REMARK   77  A    between atoms: _196  and  _197
REMARK   78  A    between atoms: _199  and  _201
REMARK   79  A    between atoms: _201  and  _202
REMARK   80  A    between atoms: _201  and  _204
REMARK   81  A    between atoms: _204  and  _205
REMARK   82  A    between atoms: _211  and  _213
REMARK   83  A    between atoms: _213  and  _214
REMARK   84  A    between atoms: _213  and  _216
REMARK   85  A    between atoms: _219  and  _221
REMARK   86  A    between atoms: _221  and  _222
REMARK   87  A    between atoms: _221  and  _224
REMARK   88  A    between atoms: _224  and  _225
REMARK   89  A    between atoms: _225  and  _226
REMARK   90  A    between atoms: _231  and  _233
REMARK   91  A    between atoms: _233  and  _234
REMARK   92  A    between atoms: _233  and  _236
REMARK   93  A    between atoms: _236  and  _237
REMARK   94  A    between atoms: _240  and  _242
REMARK   95  A    between atoms: _242  and  _243
REMARK   96  A    between atoms: _242  and  _245
REMARK   97  A    between atoms: _245  and  _246
REMARK   98  A    between atoms: _246  and  _247
REMARK   99  A    between atoms: _247  and  _248
REMARK  100  A    between atoms: _257  and  _259
REMARK  101  A    between atoms: _259  and  _260
REMARK  102  A    between atoms: _259  and  _262
REMARK  103  A    between atoms: _262  and  _263
REMARK  104  A    between atoms: _266  and  _268
REMARK  105  A    between atoms: _268  and  _269
REMARK  106  A    between atoms: _268  and  _271
REMARK  107  A    between atoms: _271  and  _272
REMARK  108  A    between atoms: _274  and  _276
REMARK  109  A    between atoms: _276  and  _277
REMARK  110  A    between atoms: _276  and  _279
REMARK  111  A    between atoms: _279  and  _280
REMARK  112  A    between atoms: _284  and  _285
REMARK  113  A    between atoms: _290  and  _292
REMARK  114  A    between atoms: _292  and  _293
REMARK  115  A    between atoms: _295  and  _297
REMARK  116  A    between atoms: _297  and  _298
REMARK  117  A    between atoms: _297  and  _300
REMARK  118  A    between atoms: _300  and  _301
REMARK  119  A    between atoms: _304  and  _306
REMARK  120  A    between atoms: _306  and  _307
REMARK  121  A    between atoms: _309  and  _311
REMARK  122  A    between atoms: _311  and  _312
REMARK  123  A    between atoms: _311  and  _314
REMARK  124  A    between atoms: _314  and  _315
REMARK  125  A    between atoms: _318  and  _320
REMARK  126  A    between atoms: _320  and  _321
REMARK  127  A    between atoms: _320  and  _323
REMARK  128  A    between atoms: _323  and  _324
REMARK  129  A    between atoms: _324  and  _325
REMARK  130  A    between atoms: _325  and  _326
REMARK  131  A    between atoms: _326  and  _327
REMARK  132  A    between atoms: _331  and  _333
REMARK  133  A    between atoms: _333  and  _334
REMARK  134  A    between atoms: _336  and  _338
REMARK  135  A    between atoms: _338  and  _339
REMARK  136  A    between atoms: _338  and  _341
REMARK  137  A    between atoms: _341  and  _342
REMARK  138  A    between atoms: _352  and  _354
REMARK  139  A    between atoms: _354  and  _355
REMARK  140  A    between atoms: _354  and  _357
REMARK  141  A    between atoms: _357  and  _358
REMARK  142  A    between atoms: _360  and  _362
REMARK  143  A    between atoms: _362  and  _363
REMARK  144  A    between atoms: _362  and  _365
REMARK  145  A    between atoms: _365  and  _366
REMARK  146  A    between atoms: _366  and  _367
REMARK  147  A    between atoms: _370  and  _372
REMARK  148  A    between atoms: _372  and  _373
REMARK  149  A    between atoms: _376  and  _378
REMARK  150  A    between atoms: _378  and  _379
REMARK  151  A    between atoms: _378  and  _381
REMARK  152  A    between atoms: _381  and  _382
REMARK  153  A    between atoms: _387  and  _388
REMARK  154  A    between atoms: _390  and  _392
REMARK  155  A    between atoms: _392  and  _393
REMARK  156  A    between atoms: _392  and  _395
REMARK  157  A    between atoms: _395  and  _396
REMARK  158  A    between atoms: _399  and  _401
REMARK  159  A    between atoms: _401  and  _402
REMARK  160  A    between atoms: _401  and  _404
REMARK  161  A    between atoms: _404  and  _405
REMARK  162  A    between atoms: _408  and  _410
REMARK  163  A    between atoms: _410  and  _411
REMARK  164  A    between atoms: _410  and  _413
REMARK  165  A    between atoms: _413  and  _414
REMARK  166  A    between atoms: _416  and  _418
REMARK  167  A    between atoms: _418  and  _419
REMARK  168  A    between atoms: _418  and  _421
REMARK  169  A    between atoms: _421  and  _422
REMARK  170  A    between atoms: _427  and  _428
REMARK  171  A    between atoms: _430  and  _432
REMARK  172  A    between atoms: _432  and  _433
REMARK  173  A    between atoms: _432  and  _435
REMARK  174  A    between atoms: _435  and  _436
REMARK  175  A    between atoms: _439  and  _441
REMARK  176  A    between atoms: _441  and  _442
REMARK  177  A    between atoms: _441  and  _444
REMARK  178  A    between atoms: _444  and  _445
REMARK  179  A    between atoms: _448  and  _450
REMARK  180  A    between atoms: _450  and  _451
REMARK  181  A    between atoms: _450  and  _453
REMARK  182  A    between atoms: _453  and  _454
REMARK  183  A    between atoms: _457  and  _458
REMARK  184  A    between atoms: _463  and  _465
REMARK  185  A    between atoms: _465  and  _466
REMARK  186  A    between atoms: _469  and  _471
REMARK  187  A    between atoms: _471  and  _472
REMARK  188  A    between atoms: _471  and  _474
REMARK  189  A    between atoms: _474  and  _475
REMARK  190  A    between atoms: _480  and  _481
REMARK  191  A    between atoms: _483  and  _485
REMARK  192  A    between atoms: _485  and  _486
REMARK  193  A    between atoms: _485  and  _488
REMARK  194  A    between atoms: _488  and  _489
REMARK  195  A    between atoms: _494  and  _496
REMARK  196  A    between atoms: _496  and  _497
REMARK  197  A    between atoms: _496  and  _499
REMARK  198  A    between atoms: _499  and  _500
REMARK  199  A    between atoms: _503  and  _505
REMARK  200  A    between atoms: _505  and  _506
REMARK  201  A    between atoms: _505  and  _508
REMARK  202  A    between atoms: _508  and  _509
REMARK  203  A    between atoms: _509  and  _510
REMARK  204  A    between atoms: _515  and  _517
REMARK  205  A    between atoms: _517  and  _518
REMARK  206  A    between atoms: _517  and  _520
REMARK  207  A    between atoms: _520  and  _521
REMARK  208  A    between atoms: _521  and  _522
REMARK  209  A    between atoms: _525  and  _527
REMARK  210  A    between atoms: _527  and  _528
REMARK  211  A    between atoms: _527  and  _530
REMARK  212  A    between atoms: _530  and  _531
REMARK  213  A    between atoms: _535  and  _536
REMARK  214  A    between atoms: _541  and  _543
REMARK  215  A    between atoms: _543  and  _544
REMARK  216  A    between atoms: _543  and  _546
REMARK  217  A    between atoms: _546  and  _547
REMARK  218  A    between atoms: _550  and  _552
REMARK  219  A    between atoms: _552  and  _553
REMARK  220  A    between atoms: _555  and  _557
REMARK  221  A    between atoms: _557  and  _558
REMARK  222  A    between atoms: _557  and  _560
REMARK  223  A    between atoms: _560  and  _561
REMARK  224  A    between atoms: _566  and  _568
REMARK  225  A    between atoms: _568  and  _569
REMARK  226  A    between atoms: _568  and  _571
REMARK  227  A    between atoms: _571  and  _572
REMARK  228  A    between atoms: _582  and  _584
REMARK  229  A    between atoms: _584  and  _585
REMARK  230  A    between atoms: _584  and  _587
REMARK  231  A    between atoms: _587  and  _588
REMARK  232  A    between atoms: _588  and  _589
REMARK  233  A    between atoms: _591  and  _593
REMARK  234  A    between atoms: _593  and  _594
REMARK  235  A    between atoms: _593  and  _596
REMARK  236  A    between atoms: _596  and  _597
REMARK  237  A    between atoms: _602  and  _603
REMARK                            x       y       z     vdW  Elec       q    Type
REMARK                         _______ _______ _______ _____ _____    ______ ____
ROOT
ATOM      1  O   HOH     1      16.746  54.820 107.384  0.00  0.00    +0.000 OA
ENDROOT
TORSDOF 0
REMARK  Name = ../refined-set-2016/2qry/2qry_pocket.pdb
REMARK  237 active torsions:
REMARK  status: ('A' for Active; 'I' for Inactive)
REMARK    1  A    between atoms: _1  and  _3
REMARK    2  A    between atoms: _3  and  _4
REMARK    3  A    between atoms: _3  and  _6
REMARK    4  A    between atoms: _6  and  _7
REMARK    5  A    between atoms: _10  and  _12
REMARK    6  A    between atoms: _12  and  _13
REMARK    7  A    between atoms: _12  and  _15
REMARK    8  A    between atoms: _15  and  _16
REMARK    9  A    between atoms: _21  and  _22
REMARK   10  A    between atoms: _24  and  _26
REMARK   11  A    between atoms: _26  and  _27
REMARK   12  A    between atoms: _26  and  _29
REMARK   13  A    between atoms: _29  and  _30
REMARK   14  A    between atoms: _33  and  _35
REMARK   15  A    between atoms: _35  and  _36
REMARK   16  A    between atoms: _35  and  _38
REMARK   17  A    between atoms: _38  and  _39
REMARK   18  A    between atoms: _41  and  _43
REMARK   19  A    between atoms: _43  and  _44
REMARK   20  A    between atoms: _43  and  _46
REMARK   21  A    between atoms: _46  and  _47
REMARK   22  A    between atoms: _53  and  _55
REMARK   23  A    between atoms: _55  and  _56
REMARK   24  A    between atoms: _59  and  _61
REMARK   25  A    between atoms: _61  and  _62
REMARK   26  A    between atoms: _61  and  _64
REMARK   27  A    between atoms: _64  and  _65
REMARK   28  A    between atoms: _75  and  _77
REMARK   29  A    between atoms: _77  and  _78
REMARK   30  A    between atoms: _81  and  _82
REMARK   31  A    between atoms: _87  and  _89
REMARK   32  A    between atoms: _89  and  _90
REMARK   33  A    between atoms: _89  and  _92
REMARK   34  A    between atoms: _92  and  _93
REMARK   35  A    between atoms: _93  and  _94
REMARK   36  A    between atoms: _97  and  _99
REMARK   37  A    between atoms: _99  and  _100
REMARK   38  A    between atoms: _99  and  _102
REMARK   39  A    between atoms: _102  and  _103
REMARK   40  A    between atoms: _106  and  _108
REMARK   41  A    between atoms: _108  and  _109
REMARK   42  A    between atoms: _111  and  _113
REMARK   43  A    between atoms: _113  and  _114
REMARK   44  A    between atoms: _113  and  _116
REMARK   45  A    between atoms: _119  and  _121
REMARK   46  A    between atoms: _121  and  _122
REMARK   47  A    between atoms: _121  and  _124
REMARK   48  A    between atoms: _124  and  _125
REMARK   49  A    between atoms: _127  and  _129
REMARK   50  A    between atoms: _129  and  _130
REMARK   51  A    between atoms: _129  and  _132
REMARK   52  A    between atoms: _132  and  _133
REMARK   53  A    between atoms: _136  and  _138
REMARK   54  A    between atoms: _138  and  _139
REMARK   55  A    between atoms: _141  and  _143
REMARK   56  A    between atoms: _143  and  _144
REMARK   57  A    between atoms: _143  and  _146
REMARK   58  A    between atoms: _146  and  _147
REMARK   59  A    between atoms: _150  and  _152
REMARK   60  A    between atoms: _152  and  _153
REMARK   61  A    between atoms: _152  and  _155
REMARK   62  A    between atoms: _155  and  _156
REMARK   63  A    between atoms: _159  and  _161
REMARK   64  A    between atoms: _161  and  _162
REMARK   65  A    between atoms: _161  and  _164
REMARK   66  A    between atoms: _164  and  _165
REMARK   67  A    between atoms: _171  and  _173
REMARK   68  A    between atoms: _173  and  _174
REMARK   69  A    between atoms: _173  and  _176
REMARK   70  A    between atoms: _176  and  _177
REMARK   71  A    between atoms: _180  and  _182
REMARK   72  A    between atoms: _182  and  _183
REMARK   73  A    between atoms: _182  and  _185
REMARK   74  A    between atoms: _185  and  _186
REMARK   75  A    between atoms: _191  and  _192
REMARK   76  A    between atoms: _194  and  _196
REMARK   77  A    between atoms: _196  and  _197
REMARK   78  A    between atoms: _199  and  _201
REMARK   79  A    between atoms: _201  and  _202
REMARK   80  A    between atoms: _201  and  _204
REMARK   81  A    between atoms: _204  and  _205
REMARK   82  A    between atoms: _211  and  _213
REMARK   83  A    between atoms: _213  and  _214
REMARK   84  A    between atoms: _213  and  _216
REMARK   85  A    between atoms: _219  and  _221
REMARK   86  A    between atoms: _221  and  _222
REMARK   87  A    between atoms: _221  and  _224
REMARK   88  A    between atoms: _224  and  _225
REMARK   89  A    between atoms: _225  and  _226
REMARK   90  A    between atoms: _231  and  _233
REMARK   91  A    between atoms: _233  and  _234
REMARK   92  A    between atoms: _233  and  _236
REMARK   93  A    between atoms: _236  and  _237
REMARK   94  A    between atoms: _240  and  _242
REMARK   95  A    between atoms: _242  and  _243
REMARK   96  A    between atoms: _242  and  _245
REMARK   97  A    between atoms: _245  and  _246
REMARK   98  A    between atoms: _246  and  _247
REMARK   99  A    between atoms: _247  and  _248
REMARK  100  A    between atoms: _257  and  _259
REMARK  101  A    between atoms: _259  and  _260
REMARK  102  A    between atoms: _259  and  _262
REMARK  103  A    between atoms: _262  and  _263
REMARK  104  A    between atoms: _266  and  _268
REMARK  105  A    between atoms: _268  and  _269
REMARK  106  A    between atoms: _268  and  _271
REMARK  107  A    between atoms: _271  and  _272
REMARK  108  A    between atoms: _274  and  _276
REMARK  109  A    between atoms: _276  and  _277
REMARK  110  A    between atoms: _276  and  _279
REMARK  111  A    between atoms: _279  and  _280
REMARK  112  A    between atoms: _284  and  _285
REMARK  113  A    between atoms: _290  and  _292
REMARK  114  A    between atoms: _292  and  _293
REMARK  115  A    between atoms: _295  and  _297
REMARK  116  A    between atoms: _297  and  _298
REMARK  117  A    between atoms: _297  and  _300
REMARK  118  A    between atoms: _300  and  _301
REMARK  119  A    between atoms: _304  and  _306
REMARK  120  A    between atoms: _306  and  _307
REMARK  121  A    between atoms: _309  and  _311
REMARK  122  A    between atoms: _311  and  _312
REMARK  123  A    between atoms: _311  and  _314
REMARK  124  A    between atoms: _314  and  _315
REMARK  125  A    between atoms: _318  and  _320
REMARK  126  A    between atoms: _320  and  _321
REMARK  127  A    between atoms: _320  and  _323
REMARK  128  A    between atoms: _323  and  _324
REMARK  129  A    between atoms: _324  and  _325
REMARK  130  A    between atoms: _325  and  _326
REMARK  131  A    between atoms: _326  and  _327
REMARK  132  A    between atoms: _331  and  _333
REMARK  133  A    between atoms: _333  and  _334
REMARK  134  A    between atoms: _336  and  _338
REMARK  135  A    between atoms: _338  and  _339
REMARK  136  A    between atoms: _338  and  _341
REMARK  137  A    between atoms: _341  and  _342
REMARK  138  A    between atoms: _352  and  _354
REMARK  139  A    between atoms: _354  and  _355
REMARK  140  A    between atoms: _354  and  _357
REMARK  141  A    between atoms: _357  and  _358
REMARK  142  A    between atoms: _360  and  _362
REMARK  143  A    between atoms: _362  and  _363
REMARK  144  A    between atoms: _362  and  _365
REMARK  145  A    between atoms: _365  and  _366
REMARK  146  A    between atoms: _366  and  _367
REMARK  147  A    between atoms: _370  and  _372
REMARK  148  A    between atoms: _372  and  _373
REMARK  149  A    between atoms: _376  and  _378
REMARK  150  A    between atoms: _378  and  _379
REMARK  151  A    between atoms: _378  and  _381
REMARK  152  A    between atoms: _381  and  _382
REMARK  153  A    between atoms: _387  and  _388
REMARK  154  A    between atoms: _390  and  _392
REMARK  155  A    between atoms: _392  and  _393
REMARK  156  A    between atoms: _392  and  _395
REMARK  157  A    between atoms: _395  and  _396
REMARK  158  A    between atoms: _399  and  _401
REMARK  159  A    between atoms: _401  and  _402
REMARK  160  A    between atoms: _401  and  _404
REMARK  161  A    between atoms: _404  and  _405
REMARK  162  A    between atoms: _408  and  _410
REMARK  163  A    between atoms: _410  and  _411
REMARK  164  A    between atoms: _410  and  _413
REMARK  165  A    between atoms: _413  and  _414
REMARK  166  A    between atoms: _416  and  _418
REMARK  167  A    between atoms: _418  and  _419
REMARK  168  A    between atoms: _418  and  _421
REMARK  169  A    between atoms: _421  and  _422
REMARK  170  A    between atoms: _427  and  _428
REMARK  171  A    between atoms: _430  and  _432
REMARK  172  A    between atoms: _432  and  _433
REMARK  173  A    between atoms: _432  and  _435
REMARK  174  A    between atoms: _435  and  _436
REMARK  175  A    between atoms: _439  and  _441
REMARK  176  A    between atoms: _441  and  _442
REMARK  177  A    between atoms: _441  and  _444
REMARK  178  A    between atoms: _444  and  _445
REMARK  179  A    between atoms: _448  and  _450
REMARK  180  A    between atoms: _450  and  _451
REMARK  181  A    between atoms: _450  and  _453
REMARK  182  A    between atoms: _453  and  _454
REMARK  183  A    between atoms: _457  and  _458
REMARK  184  A    between atoms: _463  and  _465
REMARK  185  A    between atoms: _465  and  _466
REMARK  186  A    between atoms: _469  and  _471
REMARK  187  A    between atoms: _471  and  _472
REMARK  188  A    between atoms: _471  and  _474
REMARK  189  A    between atoms: _474  and  _475
REMARK  190  A    between atoms: _480  and  _481
REMARK  191  A    between atoms: _483  and  _485
REMARK  192  A    between atoms: _485  and  _486
REMARK  193  A    between atoms: _485  and  _488
REMARK  194  A    between atoms: _488  and  _489
REMARK  195  A    between atoms: _494  and  _496
REMARK  196  A    between atoms: _496  and  _497
REMARK  197  A    between atoms: _496  and  _499
REMARK  198  A    between atoms: _499  and  _500
REMARK  199  A    between atoms: _503  and  _505
REMARK  200  A    between atoms: _505  and  _506
REMARK  201  A    between atoms: _505  and  _508
REMARK  202  A    between atoms: _508  and  _509
REMARK  203  A    between atoms: _509  and  _510
REMARK  204  A    between atoms: _515  and  _517
REMARK  205  A    between atoms: _517  and  _518
REMARK  206  A    between atoms: _517  and  _520
REMARK  207  A    between atoms: _520  and  _521
REMARK  208  A    between atoms: _521  and  _522
REMARK  209  A    between atoms: _525  and  _527
REMARK  210  A    between atoms: _527  and  _528
REMARK  211  A    between atoms: _527  and  _530
REMARK  212  A    between atoms: _530  and  _531
REMARK  213  A    between atoms: _535  and  _536
REMARK  214  A    between atoms: _541  and  _543
REMARK  215  A    between atoms: _543  and  _544
REMARK  216  A    between atoms: _543  and  _546
REMARK  217  A    between atoms: _546  and  _547
REMARK  218  A    between atoms: _550  and  _552
REMARK  219  A    between atoms: _552  and  _553
REMARK  220  A    between atoms: _555  and  _557
REMARK  221  A    between atoms: _557  and  _558
REMARK  222  A    between atoms: _557  and  _560
REMARK  223  A    between atoms: _560  and  _561
REMARK  224  A    between atoms: _566  and  _568
REMARK  225  A    between atoms: _568  and  _569
REMARK  226  A    between atoms: _568  and  _571
REMARK  227  A    between atoms: _571  and  _572
REMARK  228  A    between atoms: _582  and  _584
REMARK  229  A    between atoms: _584  and  _585
REMARK  230  A    between atoms: _584  and  _587
REMARK  231  A    between atoms: _587  and  _588
REMARK  232  A    between atoms: _588  and  _589
REMARK  233  A    between atoms: _591  and  _593
REMARK  234  A    between atoms: _593  and  _594
REMARK  235  A    between atoms: _593  and  _596
REMARK  236  A    between atoms: _596  and  _597
REMARK  237  A    between atoms: _602  and  _603
REMARK                            x       y       z     vdW  Elec       q    Type
REMARK                         _______ _______ _______ _____ _____    ______ ____
ROOT
ATOM      1  O   HOH     1      13.383  59.912 104.508  0.00  0.00    +0.000 OA
ENDROOT
TORSDOF 0
