REMARK  Name = ../refined-set-2016/3u7s/3u7s_pocket.pdb
REMARK  219 active torsions:
REMARK  status: ('A' for Active; 'I' for Inactive)
REMARK    1  A    between atoms: _1  and  _3
REMARK    2  A    between atoms: _3  and  _4
REMARK    3  A    between atoms: _3  and  _6
REMARK    4  A    between atoms: _6  and  _7
REMARK    5  A    between atoms: _7  and  _8
REMARK    6  A    between atoms: _8  and  _9
REMARK    7  A    between atoms: _18  and  _20
REMARK    8  A    between atoms: _20  and  _21
REMARK    9  A    between atoms: _20  and  _23
REMARK   10  A    between atoms: _23  and  _24
REMARK   11  A    between atoms: _27  and  _29
REMARK   12  A    between atoms: _29  and  _30
REMARK   13  A    between atoms: _29  and  _32
REMARK   14  A    between atoms: _32  and  _33
REMARK   15  A    between atoms: _36  and  _38
REMARK   16  A    between atoms: _38  and  _39
REMARK   17  A    between atoms: _38  and  _41
REMARK   18  A    between atoms: _41  and  _42
REMARK   19  A    between atoms: _45  and  _47
REMARK   20  A    between atoms: _47  and  _48
REMARK   21  A    between atoms: _47  and  _50
REMARK   22  A    between atoms: _50  and  _51
REMARK   23  A    between atoms: _54  and  _56
REMARK   24  A    between atoms: _56  and  _57
REMARK   25  A    between atoms: _59  and  _61
REMARK   26  A    between atoms: _61  and  _62
REMARK   27  A    between atoms: _65  and  _67
REMARK   28  A    between atoms: _67  and  _68
REMARK   29  A    between atoms: _67  and  _70
REMARK   30  A    between atoms: _70  and  _71
REMARK   31  A    between atoms: _74  and  _76
REMARK   32  A    between atoms: _76  and  _77
REMARK   33  A    between atoms: _76  and  _79
REMARK   34  A    between atoms: _79  and  _80
REMARK   35  A    between atoms: _83  and  _85
REMARK   36  A    between atoms: _85  and  _86
REMARK   37  A    between atoms: _85  and  _88
REMARK   38  A    between atoms: _88  and  _89
REMARK   39  A    between atoms: _92  and  _94
REMARK   40  A    between atoms: _94  and  _95
REMARK   41  A    between atoms: _94  and  _97
REMARK   42  A    between atoms: _97  and  _98
REMARK   43  A    between atoms: _101  and  _103
REMARK   44  A    between atoms: _103  and  _104
REMARK   45  A    between atoms: _103  and  _106
REMARK   46  A    between atoms: _106  and  _107
REMARK   47  A    between atoms: _107  and  _108
REMARK   48  A    between atoms: _108  and  _109
REMARK   49  A    between atoms: _109  and  _110
REMARK   50  A    between atoms: _114  and  _116
REMARK   51  A    between atoms: _116  and  _117
REMARK   52  A    between atoms: _116  and  _119
REMARK   53  A    between atoms: _119  and  _120
REMARK   54  A    between atoms: _120  and  _121
REMARK   55  A    between atoms: _125  and  _126
REMARK   56  A    between atoms: _125  and  _128
REMARK   57  A    between atoms: _128  and  _129
REMARK   58  A    between atoms: _132  and  _134
REMARK   59  A    between atoms: _134  and  _135
REMARK   60  A    between atoms: _137  and  _139
REMARK   61  A    between atoms: _139  and  _140
REMARK   62  A    between atoms: _142  and  _144
REMARK   63  A    between atoms: _144  and  _145
REMARK   64  A    between atoms: _144  and  _147
REMARK   65  A    between atoms: _147  and  _148
REMARK   66  A    between atoms: _151  and  _153
REMARK   67  A    between atoms: _153  and  _154
REMARK   68  A    between atoms: _156  and  _158
REMARK   69  A    between atoms: _158  and  _159
REMARK   70  A    between atoms: _161  and  _163
REMARK   71  A    between atoms: _163  and  _164
REMARK   72  A    between atoms: _163  and  _166
REMARK   73  A    between atoms: _166  and  _167
REMARK   74  A    between atoms: _173  and  _175
REMARK   75  A    between atoms: _175  and  _176
REMARK   76  A    between atoms: _175  and  _178
REMARK   77  A    between atoms: _178  and  _179
REMARK   78  A    between atoms: _182  and  _184
REMARK   79  A    between atoms: _184  and  _185
REMARK   80  A    between atoms: _184  and  _187
REMARK   81  A    between atoms: _187  and  _188
REMARK   82  A    between atoms: _192  and  _193
REMARK   83  A    between atoms: _198  and  _200
REMARK   84  A    between atoms: _200  and  _201
REMARK   85  A    between atoms: _200  and  _203
REMARK   86  A    between atoms: _203  and  _204
REMARK   87  A    between atoms: _207  and  _209
REMARK   88  A    between atoms: _209  and  _210
REMARK   89  A    between atoms: _209  and  _212
REMARK   90  A    between atoms: _212  and  _213
REMARK   91  A    between atoms: _218  and  _220
REMARK   92  A    between atoms: _220  and  _221
REMARK   93  A    between atoms: _220  and  _223
REMARK   94  A    between atoms: _226  and  _228
REMARK   95  A    between atoms: _228  and  _229
REMARK   96  A    between atoms: _228  and  _231
REMARK   97  A    between atoms: _231  and  _232
REMARK   98  A    between atoms: _235  and  _237
REMARK   99  A    between atoms: _237  and  _238
REMARK  100  A    between atoms: _240  and  _242
REMARK  101  A    between atoms: _242  and  _243
REMARK  102  A    between atoms: _242  and  _245
REMARK  103  A    between atoms: _245  and  _246
REMARK  104  A    between atoms: _246  and  _247
REMARK  105  A    between atoms: _247  and  _248
REMARK  106  A    between atoms: _257  and  _259
REMARK  107  A    between atoms: _259  and  _260
REMARK  108  A    between atoms: _259  and  _262
REMARK  109  A    between atoms: _262  and  _263
REMARK  110  A    between atoms: _268  and  _270
REMARK  111  A    between atoms: _270  and  _271
REMARK  112  A    between atoms: _270  and  _273
REMARK  113  A    between atoms: _273  and  _274
REMARK  114  A    between atoms: _274  and  _275
REMARK  115  A    between atoms: _275  and  _276
REMARK  116  A    between atoms: _285  and  _287
REMARK  117  A    between atoms: _287  and  _288
REMARK  118  A    between atoms: _287  and  _290
REMARK  119  A    between atoms: _290  and  _291
REMARK  120  A    between atoms: _294  and  _296
REMARK  121  A    between atoms: _296  and  _297
REMARK  122  A    between atoms: _296  and  _299
REMARK  123  A    between atoms: _299  and  _300
REMARK  124  A    between atoms: _303  and  _305
REMARK  125  A    between atoms: _305  and  _306
REMARK  126  A    between atoms: _305  and  _308
REMARK  127  A    between atoms: _308  and  _309
REMARK  128  A    between atoms: _312  and  _314
REMARK  129  A    between atoms: _314  and  _315
REMARK  130  A    between atoms: _314  and  _317
REMARK  131  A    between atoms: _317  and  _318
REMARK  132  A    between atoms: _321  and  _323
REMARK  133  A    between atoms: _323  and  _324
REMARK  134  A    between atoms: _326  and  _328
REMARK  135  A    between atoms: _328  and  _329
REMARK  136  A    between atoms: _332  and  _334
REMARK  137  A    between atoms: _334  and  _335
REMARK  138  A    between atoms: _334  and  _337
REMARK  139  A    between atoms: _337  and  _338
REMARK  140  A    between atoms: _341  and  _343
REMARK  141  A    between atoms: _343  and  _344
REMARK  142  A    between atoms: _343  and  _346
REMARK  143  A    between atoms: _346  and  _347
REMARK  144  A    between atoms: _350  and  _352
REMARK  145  A    between atoms: _352  and  _353
REMARK  146  A    between atoms: _352  and  _355
REMARK  147  A    between atoms: _355  and  _356
REMARK  148  A    between atoms: _359  and  _361
REMARK  149  A    between atoms: _361  and  _362
REMARK  150  A    between atoms: _361  and  _364
REMARK  151  A    between atoms: _364  and  _365
REMARK  152  A    between atoms: _368  and  _370
REMARK  153  A    between atoms: _370  and  _371
REMARK  154  A    between atoms: _370  and  _373
REMARK  155  A    between atoms: _373  and  _374
REMARK  156  A    between atoms: _374  and  _375
REMARK  157  A    between atoms: _375  and  _376
REMARK  158  A    between atoms: _376  and  _377
REMARK  159  A    between atoms: _381  and  _383
REMARK  160  A    between atoms: _383  and  _384
REMARK  161  A    between atoms: _383  and  _386
REMARK  162  A    between atoms: _386  and  _387
REMARK  163  A    between atoms: _387  and  _388
REMARK  164  A    between atoms: _390  and  _392
REMARK  165  A    between atoms: _392  and  _393
REMARK  166  A    between atoms: _392  and  _395
REMARK  167  A    between atoms: _395  and  _396
REMARK  168  A    between atoms: _399  and  _401
REMARK  169  A    between atoms: _401  and  _402
REMARK  170  A    between atoms: _404  and  _406
REMARK  171  A    between atoms: _406  and  _407
REMARK  172  A    between atoms: _409  and  _411
REMARK  173  A    between atoms: _411  and  _412
REMARK  174  A    between atoms: _411  and  _414
REMARK  175  A    between atoms: _414  and  _415
REMARK  176  A    between atoms: _418  and  _420
REMARK  177  A    between atoms: _420  and  _421
REMARK  178  A    between atoms: _423  and  _425
REMARK  179  A    between atoms: _425  and  _426
REMARK  180  A    between atoms: _428  and  _430
REMARK  181  A    between atoms: _430  and  _431
REMARK  182  A    between atoms: _430  and  _433
REMARK  183  A    between atoms: _433  and  _434
REMARK  184  A    between atoms: _437  and  _439
REMARK  185  A    between atoms: _439  and  _440
REMARK  186  A    between atoms: _439  and  _442
REMARK  187  A    between atoms: _445  and  _447
REMARK  188  A    between atoms: _447  and  _448
REMARK  189  A    between atoms: _447  and  _450
REMARK  190  A    between atoms: _450  and  _451
REMARK  191  A    between atoms: _455  and  _456
REMARK  192  A    between atoms: _461  and  _463
REMARK  193  A    between atoms: _463  and  _464
REMARK  194  A    between atoms: _463  and  _466
REMARK  195  A    between atoms: _466  and  _467
REMARK  196  A    between atoms: _471  and  _472
REMARK  197  A    between atoms: _477  and  _479
REMARK  198  A    between atoms: _479  and  _480
REMARK  199  A    between atoms: _479  and  _482
REMARK  200  A    between atoms: _482  and  _483
REMARK  201  A    between atoms: _486  and  _488
REMARK  202  A    between atoms: _488  and  _489
REMARK  203  A    between atoms: _488  and  _491
REMARK  204  A    between atoms: _491  and  _492
REMARK  205  A    between atoms: _497  and  _499
REMARK  206  A    between atoms: _499  and  _500
REMARK  207  A    between atoms: _499  and  _502
REMARK  208  A    between atoms: _505  and  _507
REMARK  209  A    between atoms: _507  and  _508
REMARK  210  A    between atoms: _507  and  _510
REMARK  211  A    between atoms: _510  and  _511
REMARK  212  A    between atoms: _514  and  _516
REMARK  213  A    between atoms: _516  and  _517
REMARK  214  A    between atoms: _519  and  _521
REMARK  215  A    between atoms: _521  and  _522
REMARK  216  A    between atoms: _521  and  _524
REMARK  217  A    between atoms: _524  and  _525
REMARK  218  A    between atoms: _525  and  _526
REMARK  219  A    between atoms: _526  and  _527
REMARK                            x       y       z     vdW  Elec       q    Type
REMARK                         _______ _______ _______ _____ _____    ______ ____
ROOT
ATOM      1  NE  ARG A   1     -18.316  15.533  33.193  0.00  0.00    -0.265 N 
ATOM      2  CZ  ARG A   1     -18.171  14.237  33.445  0.00  0.00    +0.342 C 
ATOM      3  NH2 ARG A   1     -16.996  13.763  33.857  0.00  0.00    -0.292 N 
ATOM      4 HH21 ARG A   1     -16.885  12.748  34.054  0.00  0.00    +0.255 HD
ATOM      5 HH22 ARG A   1     -16.190  14.408  33.982  0.00  0.00    +0.255 HD
ATOM      6  NH1 ARG A   1     -19.204  13.412  33.299  0.00  0.00    -0.292 N 
ATOM      7 HH11 ARG A   1     -19.091  12.397  33.496  0.00  0.00    +0.255 HD
ATOM      8 HH12 ARG A   1     -20.125  13.782  32.988  0.00  0.00    +0.255 HD
ATOM      9  HE  ARG A   1     -17.491  16.152  33.326  0.00  0.00    +0.259 HD
ENDROOT
BRANCH   1  10
ATOM     10  CD  ARG A   1     -19.561  16.140  32.741  0.00  0.00    +0.174 C 
BRANCH  10  11
ATOM     11  CG  ARG A   1     -19.564  17.632  32.933  0.00  0.00    +0.045 C 
BRANCH  11  12
ATOM     12  CB  ARG A   1     -20.695  18.251  32.122  0.00  0.00    +0.029 C 
BRANCH  12  13
ATOM     13  CA  ARG A   1     -20.871  19.741  32.416  0.00  0.00    +0.133 C 
BRANCH  13  14
ATOM     14  N   ARG A   1     -21.486  19.939  33.744  0.00  0.00    -0.239 NA
ATOM     15  H   ARG A   1     -21.770  19.117  34.314  0.00  0.00    +0.142 HD
ENDBRANCH  13  14
BRANCH  13  16
ATOM     16  C   ARG A   1     -21.723  20.375  31.306  0.00  0.00    +0.224 C 
ATOM     17  O   ARG A   1     -22.956  20.202  31.303  0.00  0.00    -0.287 OA
ENDBRANCH  13  16
ENDBRANCH  12  13
ENDBRANCH  11  12
ENDBRANCH  10  11
ENDBRANCH   1  10
TORSDOF 6
REMARK  Name = ../refined-set-2016/3u7s/3u7s_pocket.pdb
REMARK  219 active torsions:
REMARK  status: ('A' for Active; 'I' for Inactive)
REMARK    1  A    between atoms: _1  and  _3
REMARK    2  A    between atoms: _3  and  _4
REMARK    3  A    between atoms: _3  and  _6
REMARK    4  A    between atoms: _6  and  _7
REMARK    5  A    between atoms: _7  and  _8
REMARK    6  A    between atoms: _8  and  _9
REMARK    7  A    between atoms: _18  and  _20
REMARK    8  A    between atoms: _20  and  _21
REMARK    9  A    between atoms: _20  and  _23
REMARK   10  A    between atoms: _23  and  _24
REMARK   11  A    between atoms: _27  and  _29
REMARK   12  A    between atoms: _29  and  _30
REMARK   13  A    between atoms: _29  and  _32
REMARK   14  A    between atoms: _32  and  _33
REMARK   15  A    between atoms: _36  and  _38
REMARK   16  A    between atoms: _38  and  _39
REMARK   17  A    between atoms: _38  and  _41
REMARK   18  A    between atoms: _41  and  _42
REMARK   19  A    between atoms: _45  and  _47
REMARK   20  A    between atoms: _47  and  _48
REMARK   21  A    between atoms: _47  and  _50
REMARK   22  A    between atoms: _50  and  _51
REMARK   23  A    between atoms: _54  and  _56
REMARK   24  A    between atoms: _56  and  _57
REMARK   25  A    between atoms: _59  and  _61
REMARK   26  A    between atoms: _61  and  _62
REMARK   27  A    between atoms: _65  and  _67
REMARK   28  A    between atoms: _67  and  _68
REMARK   29  A    between atoms: _67  and  _70
REMARK   30  A    between atoms: _70  and  _71
REMARK   31  A    between atoms: _74  and  _76
REMARK   32  A    between atoms: _76  and  _77
REMARK   33  A    between atoms: _76  and  _79
REMARK   34  A    between atoms: _79  and  _80
REMARK   35  A    between atoms: _83  and  _85
REMARK   36  A    between atoms: _85  and  _86
REMARK   37  A    between atoms: _85  and  _88
REMARK   38  A    between atoms: _88  and  _89
REMARK   39  A    between atoms: _92  and  _94
REMARK   40  A    between atoms: _94  and  _95
REMARK   41  A    between atoms: _94  and  _97
REMARK   42  A    between atoms: _97  and  _98
REMARK   43  A    between atoms: _101  and  _103
REMARK   44  A    between atoms: _103  and  _104
REMARK   45  A    between atoms: _103  and  _106
REMARK   46  A    between atoms: _106  and  _107
REMARK   47  A    between atoms: _107  and  _108
REMARK   48  A    between atoms: _108  and  _109
REMARK   49  A    between atoms: _109  and  _110
REMARK   50  A    between atoms: _114  and  _116
REMARK   51  A    between atoms: _116  and  _117
REMARK   52  A    between atoms: _116  and  _119
REMARK   53  A    between atoms: _119  and  _120
REMARK   54  A    between atoms: _120  and  _121
REMARK   55  A    between atoms: _125  and  _126
REMARK   56  A    between atoms: _125  and  _128
REMARK   57  A    between atoms: _128  and  _129
REMARK   58  A    between atoms: _132  and  _134
REMARK   59  A    between atoms: _134  and  _135
REMARK   60  A    between atoms: _137  and  _139
REMARK   61  A    between atoms: _139  and  _140
REMARK   62  A    between atoms: _142  and  _144
REMARK   63  A    between atoms: _144  and  _145
REMARK   64  A    between atoms: _144  and  _147
REMARK   65  A    between atoms: _147  and  _148
REMARK   66  A    between atoms: _151  and  _153
REMARK   67  A    between atoms: _153  and  _154
REMARK   68  A    between atoms: _156  and  _158
REMARK   69  A    between atoms: _158  and  _159
REMARK   70  A    between atoms: _161  and  _163
REMARK   71  A    between atoms: _163  and  _164
REMARK   72  A    between atoms: _163  and  _166
REMARK   73  A    between atoms: _166  and  _167
REMARK   74  A    between atoms: _173  and  _175
REMARK   75  A    between atoms: _175  and  _176
REMARK   76  A    between atoms: _175  and  _178
REMARK   77  A    between atoms: _178  and  _179
REMARK   78  A    between atoms: _182  and  _184
REMARK   79  A    between atoms: _184  and  _185
REMARK   80  A    between atoms: _184  and  _187
REMARK   81  A    between atoms: _187  and  _188
REMARK   82  A    between atoms: _192  and  _193
REMARK   83  A    between atoms: _198  and  _200
REMARK   84  A    between atoms: _200  and  _201
REMARK   85  A    between atoms: _200  and  _203
REMARK   86  A    between atoms: _203  and  _204
REMARK   87  A    between atoms: _207  and  _209
REMARK   88  A    between atoms: _209  and  _210
REMARK   89  A    between atoms: _209  and  _212
REMARK   90  A    between atoms: _212  and  _213
REMARK   91  A    between atoms: _218  and  _220
REMARK   92  A    between atoms: _220  and  _221
REMARK   93  A    between atoms: _220  and  _223
REMARK   94  A    between atoms: _226  and  _228
REMARK   95  A    between atoms: _228  and  _229
REMARK   96  A    between atoms: _228  and  _231
REMARK   97  A    between atoms: _231  and  _232
REMARK   98  A    between atoms: _235  and  _237
REMARK   99  A    between atoms: _237  and  _238
REMARK  100  A    between atoms: _240  and  _242
REMARK  101  A    between atoms: _242  and  _243
REMARK  102  A    between atoms: _242  and  _245
REMARK  103  A    between atoms: _245  and  _246
REMARK  104  A    between atoms: _246  and  _247
REMARK  105  A    between atoms: _247  and  _248
REMARK  106  A    between atoms: _257  and  _259
REMARK  107  A    between atoms: _259  and  _260
REMARK  108  A    between atoms: _259  and  _262
REMARK  109  A    between atoms: _262  and  _263
REMARK  110  A    between atoms: _268  and  _270
REMARK  111  A    between atoms: _270  and  _271
REMARK  112  A    between atoms: _270  and  _273
REMARK  113  A    between atoms: _273  and  _274
REMARK  114  A    between atoms: _274  and  _275
REMARK  115  A    between atoms: _275  and  _276
REMARK  116  A    between atoms: _285  and  _287
REMARK  117  A    between atoms: _287  and  _288
REMARK  118  A    between atoms: _287  and  _290
REMARK  119  A    between atoms: _290  and  _291
REMARK  120  A    between atoms: _294  and  _296
REMARK  121  A    between atoms: _296  and  _297
REMARK  122  A    between atoms: _296  and  _299
REMARK  123  A    between atoms: _299  and  _300
REMARK  124  A    between atoms: _303  and  _305
REMARK  125  A    between atoms: _305  and  _306
REMARK  126  A    between atoms: _305  and  _308
REMARK  127  A    between atoms: _308  and  _309
REMARK  128  A    between atoms: _312  and  _314
REMARK  129  A    between atoms: _314  and  _315
REMARK  130  A    between atoms: _314  and  _317
REMARK  131  A    between atoms: _317  and  _318
REMARK  132  A    between atoms: _321  and  _323
REMARK  133  A    between atoms: _323  and  _324
REMARK  134  A    between atoms: _326  and  _328
REMARK  135  A    between atoms: _328  and  _329
REMARK  136  A    between atoms: _332  and  _334
REMARK  137  A    between atoms: _334  and  _335
REMARK  138  A    between atoms: _334  and  _337
REMARK  139  A    between atoms: _337  and  _338
REMARK  140  A    between atoms: _341  and  _343
REMARK  141  A    between atoms: _343  and  _344
REMARK  142  A    between atoms: _343  and  _346
REMARK  143  A    between atoms: _346  and  _347
REMARK  144  A    between atoms: _350  and  _352
REMARK  145  A    between atoms: _352  and  _353
REMARK  146  A    between atoms: _352  and  _355
REMARK  147  A    between atoms: _355  and  _356
REMARK  148  A    between atoms: _359  and  _361
REMARK  149  A    between atoms: _361  and  _362
REMARK  150  A    between atoms: _361  and  _364
REMARK  151  A    between atoms: _364  and  _365
REMARK  152  A    between atoms: _368  and  _370
REMARK  153  A    between atoms: _370  and  _371
REMARK  154  A    between atoms: _370  and  _373
REMARK  155  A    between atoms: _373  and  _374
REMARK  156  A    between atoms: _374  and  _375
REMARK  157  A    between atoms: _375  and  _376
REMARK  158  A    between atoms: _376  and  _377
REMARK  159  A    between atoms: _381  and  _383
REMARK  160  A    between atoms: _383  and  _384
REMARK  161  A    between atoms: _383  and  _386
REMARK  162  A    between atoms: _386  and  _387
REMARK  163  A    between atoms: _387  and  _388
REMARK  164  A    between atoms: _390  and  _392
REMARK  165  A    between atoms: _392  and  _393
REMARK  166  A    between atoms: _392  and  _395
REMARK  167  A    between atoms: _395  and  _396
REMARK  168  A    between atoms: _399  and  _401
REMARK  169  A    between atoms: _401  and  _402
REMARK  170  A    between atoms: _404  and  _406
REMARK  171  A    between atoms: _406  and  _407
REMARK  172  A    between atoms: _409  and  _411
REMARK  173  A    between atoms: _411  and  _412
REMARK  174  A    between atoms: _411  and  _414
REMARK  175  A    between atoms: _414  and  _415
REMARK  176  A    between atoms: _418  and  _420
REMARK  177  A    between atoms: _420  and  _421
REMARK  178  A    between atoms: _423  and  _425
REMARK  179  A    between atoms: _425  and  _426
REMARK  180  A    between atoms: _428  and  _430
REMARK  181  A    between atoms: _430  and  _431
REMARK  182  A    between atoms: _430  and  _433
REMARK  183  A    between atoms: _433  and  _434
REMARK  184  A    between atoms: _437  and  _439
REMARK  185  A    between atoms: _439  and  _440
REMARK  186  A    between atoms: _439  and  _442
REMARK  187  A    between atoms: _445  and  _447
REMARK  188  A    between atoms: _447  and  _448
REMARK  189  A    between atoms: _447  and  _450
REMARK  190  A    between atoms: _450  and  _451
REMARK  191  A    between atoms: _455  and  _456
REMARK  192  A    between atoms: _461  and  _463
REMARK  193  A    between atoms: _463  and  _464
REMARK  194  A    between atoms: _463  and  _466
REMARK  195  A    between atoms: _466  and  _467
REMARK  196  A    between atoms: _471  and  _472
REMARK  197  A    between atoms: _477  and  _479
REMARK  198  A    between atoms: _479  and  _480
REMARK  199  A    between atoms: _479  and  _482
REMARK  200  A    between atoms: _482  and  _483
REMARK  201  A    between atoms: _486  and  _488
REMARK  202  A    between atoms: _488  and  _489
REMARK  203  A    between atoms: _488  and  _491
REMARK  204  A    between atoms: _491  and  _492
REMARK  205  A    between atoms: _497  and  _499
REMARK  206  A    between atoms: _499  and  _500
REMARK  207  A    between atoms: _499  and  _502
REMARK  208  A    between atoms: _505  and  _507
REMARK  209  A    between atoms: _507  and  _508
REMARK  210  A    between atoms: _507  and  _510
REMARK  211  A    between atoms: _510  and  _511
REMARK  212  A    between atoms: _514  and  _516
REMARK  213  A    between atoms: _516  and  _517
REMARK  214  A    between atoms: _519  and  _521
REMARK  215  A    between atoms: _521  and  _522
REMARK  216  A    between atoms: _521  and  _524
REMARK  217  A    between atoms: _524  and  _525
REMARK  218  A    between atoms: _525  and  _526
REMARK  219  A    between atoms: _526  and  _527
REMARK                            x       y       z     vdW  Elec       q    Type
REMARK                         _______ _______ _______ _____ _____    ______ ____
ROOT
ATOM      1  C   GLY A   5      -9.657  21.478  24.232  0.00  0.00    +0.243 C 
ATOM      2  O   GLY A   5      -8.593  20.871  24.189  0.00  0.00    -0.273 OA
ATOM      3  N   ALA A   6     -10.593  21.337  23.302  0.00  0.00    -0.297 N 
ATOM      4  H   ALA A   6     -11.468  21.894  23.373  0.00  0.00    +0.150 HD
ENDROOT
BRANCH   3   5
ATOM      5  CA  ALA A   6     -10.422  20.420  22.185  0.00  0.00    +0.149 C 
ATOM      6  CB  ALA A   6     -11.605  19.447  22.152  0.00  0.00    +0.031 C 
BRANCH   5   7
ATOM      7  C   ALA A   6     -10.345  21.187  20.876  0.00  0.00    +0.241 C 
ATOM      8  O   ALA A   6     -11.210  22.025  20.611  0.00  0.00    -0.273 OA
ATOM      9  N   ASP A   7      -9.327  20.916  20.061  0.00  0.00    -0.297 N 
ATOM     10  H   ASP A   7      -8.612  20.216  20.344  0.00  0.00    +0.150 HD
BRANCH   9  11
ATOM     11  CA  ASP A   7      -9.208  21.595  18.772  0.00  0.00    +0.160 C 
BRANCH  11  12
ATOM     12  C   ASP A   7     -10.238  21.032  17.833  0.00  0.00    +0.241 C 
ATOM     13  N   ASP A   8     -10.466  19.722  17.971  0.00  0.00    -0.297 N 
ATOM     14  H   ASP A   8     -10.051  19.242  18.795  0.00  0.00    +0.150 HD
ATOM     15  O   ASP A   7     -10.782  21.752  17.002  0.00  0.00    -0.273 OA
BRANCH  13  16
ATOM     16  CA  ASP A   8     -11.251  18.927  17.051  0.00  0.00    +0.160 C 
BRANCH  16  17
ATOM     17  C   ASP A   8     -12.505  18.348  17.728  0.00  0.00    +0.241 C 
ATOM     18  O   ASP A   8     -12.634  18.365  18.956  0.00  0.00    -0.273 OA
ATOM     19  N   THR A   9     -13.412  17.820  16.893  0.00  0.00    -0.295 N 
ATOM     20  H   THR A   9     -13.183  17.776  15.879  0.00  0.00    +0.150 HD
BRANCH  19  21
ATOM     21  CA  THR A   9     -14.708  17.303  17.337  0.00  0.00    +0.176 C 
BRANCH  21  22
ATOM     22  C   THR A   9     -14.602  15.790  17.208  0.00  0.00    +0.243 C 
ATOM     23  N   ILE A  10     -14.909  15.091  18.297  0.00  0.00    -0.298 N 
ATOM     24  H   ILE A  10     -15.248  15.584  19.147  0.00  0.00    +0.150 HD
ATOM     25  O   THR A   9     -14.165  15.266  16.173  0.00  0.00    -0.273 OA
BRANCH  23  26
ATOM     26  CA  ILE A  10     -14.774  13.637  18.309  0.00  0.00    +0.137 C 
BRANCH  26  27
ATOM     27  CB  ILE A  10     -13.389  13.159  18.827  0.00  0.00    +0.026 C 
ATOM     28  CG2 ILE A  10     -13.045  13.775  20.191  0.00  0.00    +0.002 C 
BRANCH  27  29
ATOM     29  CG1 ILE A  10     -13.330  11.624  18.864  0.00  0.00    +0.002 C 
ATOM     30  CD1 ILE A  10     -11.949  11.067  18.762  0.00  0.00    +0.000 C 
ENDBRANCH  27  29
ENDBRANCH  26  27
BRANCH  26  31
ATOM     31  C   ILE A  10     -15.929  12.944  19.017  0.00  0.00    +0.227 C 
ATOM     32  O   ILE A  10     -16.339  13.340  20.140  0.00  0.00    -0.286 OA
ENDBRANCH  26  31
ENDBRANCH  23  26
ENDBRANCH  21  22
BRANCH  21  33
ATOM     33  CB  THR A   9     -15.853  17.924  16.497  0.00  0.00    +0.137 C 
ATOM     34  CG2 THR A   9     -17.196  17.226  16.727  0.00  0.00    +0.034 C 
BRANCH  33  35
ATOM     35  OG1 THR A   9     -15.964  19.307  16.855  0.00  0.00    -0.382 OA
ATOM     36  HG1 THR A   9     -15.109  19.767  16.661  0.00  0.00    +0.210 HD
ENDBRANCH  33  35
ENDBRANCH  21  33
ENDBRANCH  19  21
ENDBRANCH  16  17
BRANCH  16  37
ATOM     37  CB  ASP A   8     -10.415  17.760  16.515  0.00  0.00    +0.143 C 
BRANCH  37  38
ATOM     38  CG  ASP A   8      -9.039  18.186  16.027  0.00  0.00    +0.367 C 
ATOM     39  OD2 ASP A   8      -8.041  17.587  16.502  0.00  0.00    -0.246 OA
ATOM     40  OD1 ASP A   8      -8.954  19.088  15.169  0.00  0.00    -0.246 OA
ENDBRANCH  37  38
ENDBRANCH  16  37
ENDBRANCH  13  16
ENDBRANCH  11  12
BRANCH  11  41
ATOM     41  CB  ASP A   7      -7.840  21.379  18.144  0.00  0.00    +0.143 C 
BRANCH  41  42
ATOM     42  CG  ASP A   7      -6.709  21.906  19.001  0.00  0.00    +0.367 C 
ATOM     43  OD2 ASP A   7      -6.949  22.719  19.929  0.00  0.00    -0.246 OA
ATOM     44  OD1 ASP A   7      -5.573  21.495  18.731  0.00  0.00    -0.246 OA
ENDBRANCH  41  42
ENDBRANCH  11  41
ENDBRANCH   9  11
ENDBRANCH   5   7
ENDBRANCH   3   5
BRANCH   1  45
ATOM     45  CA  GLY A   5      -9.946  22.447  25.370  0.00  0.00    +0.176 C 
BRANCH  45  47
ATOM     46  C   THR A   4     -11.556  24.110  24.669  0.00  0.00    +0.243 C 
ATOM     47  N   GLY A   5     -11.302  22.998  25.355  0.00  0.00    -0.295 N 
ATOM     48  H   GLY A   5     -12.064  22.522  25.879  0.00  0.00    +0.150 HD
ATOM     49  O   THR A   4     -10.676  24.711  24.028  0.00  0.00    -0.273 OA
BRANCH  46  50
ATOM     50  CA  THR A   4     -13.021  24.614  24.686  0.00  0.00    +0.176 C 
BRANCH  50  52
ATOM     51  C   ASP A   3     -14.217  22.474  24.432  0.00  0.00    +0.241 C 
ATOM     52  N   THR A   4     -13.963  23.580  25.155  0.00  0.00    -0.295 N 
ATOM     53  H   THR A   4     -14.443  23.709  26.068  0.00  0.00    +0.150 HD
ATOM     54  O   ASP A   3     -13.623  22.178  23.375  0.00  0.00    -0.273 OA
BRANCH  51  55
ATOM     55  CA  ASP A   3     -15.264  21.528  24.983  0.00  0.00    +0.160 C 
BRANCH  55  58
ATOM     56  C   LEU A   2     -17.620  21.966  25.202  0.00  0.00    +0.241 C 
ATOM     57  O   LEU A   2     -17.517  22.244  26.404  0.00  0.00    -0.273 OA
ATOM     58  N   ASP A   3     -16.579  21.781  24.411  0.00  0.00    -0.297 N 
ATOM     59  H   ASP A   3     -16.698  21.816  23.378  0.00  0.00    +0.150 HD
BRANCH  56  60
ATOM     60  CA  LEU A   2     -18.983  21.773  24.560  0.00  0.00    +0.149 C 
BRANCH  60  62
ATOM     61  C   LEU A   1     -19.149  19.378  24.822  0.00  0.00    +0.238 C 
ATOM     62  N   LEU A   2     -19.583  20.582  25.180  0.00  0.00    -0.297 N 
ATOM     63  H   LEU A   2     -20.337  20.681  25.889  0.00  0.00    +0.150 HD
ATOM     64  O   LEU A   1     -18.314  19.209  23.901  0.00  0.00    -0.274 OA
BRANCH  61  65
ATOM     65  CA  LEU A   1     -19.675  18.200  25.650  0.00  0.00    +0.145 C 
BRANCH  65  66
ATOM     66  N   LEU A   1     -20.218  17.153  24.836  0.00  0.00    -0.238 NA
ATOM     67  H   LEU A   1     -19.580  16.389  24.535  0.00  0.00    +0.142 HD
ENDBRANCH  65  66
BRANCH  65  68
ATOM     68  CB  LEU A   1     -18.519  17.594  26.459  0.00  0.00    +0.026 C 
BRANCH  68  69
ATOM     69  CG  LEU A   1     -17.980  18.162  27.744  0.00  0.00    +0.002 C 
ATOM     70  CD2 LEU A   1     -19.003  18.061  28.839  0.00  0.00    +0.000 C 
ATOM     71  CD1 LEU A   1     -16.730  17.312  28.109  0.00  0.00    +0.000 C 
ENDBRANCH  68  69
ENDBRANCH  65  68
ENDBRANCH  61  65
ENDBRANCH  60  62
BRANCH  60  72
ATOM     72  CB  LEU A   2     -19.862  23.002  24.724  0.00  0.00    +0.029 C 
BRANCH  72  73
ATOM     73  CG  LEU A   2     -21.197  23.011  23.979  0.00  0.00    +0.002 C 
ATOM     74  CD2 LEU A   2     -21.994  24.183  24.547  0.00  0.00    +0.000 C 
ATOM     75  CD1 LEU A   2     -21.006  23.108  22.430  0.00  0.00    +0.000 C 
ENDBRANCH  72  73
ENDBRANCH  60  72
ENDBRANCH  56  60
ENDBRANCH  55  58
BRANCH  55  76
ATOM     76  CB  ASP A   3     -14.830  20.071  24.702  0.00  0.00    +0.143 C 
BRANCH  76  77
ATOM     77  CG  ASP A   3     -13.533  19.692  25.433  0.00  0.00    +0.367 C 
ATOM     78  OD2 ASP A   3     -12.924  20.573  26.095  0.00  0.00    -0.246 OA
ATOM     79  OD1 ASP A   3     -13.117  18.521  25.335  0.00  0.00    -0.246 OA
ENDBRANCH  76  77
ENDBRANCH  55  76
ENDBRANCH  51  55
ENDBRANCH  50  52
BRANCH  50  80
ATOM     80  CB  THR A   4     -13.104  25.917  25.530  0.00  0.00    +0.137 C 
ATOM     81  CG2 THR A   4     -14.495  26.566  25.430  0.00  0.00    +0.034 C 
BRANCH  80  82
ATOM     82  OG1 THR A   4     -12.824  25.615  26.897  0.00  0.00    -0.382 OA
ATOM     83  HG1 THR A   4     -11.914  25.231  26.969  0.00  0.00    +0.210 HD
ENDBRANCH  80  82
ENDBRANCH  50  80
ENDBRANCH  46  50
ENDBRANCH  45  47
ENDBRANCH   1  45
TORSDOF 36
REMARK  Name = ../refined-set-2016/3u7s/3u7s_pocket.pdb
REMARK  219 active torsions:
REMARK  status: ('A' for Active; 'I' for Inactive)
REMARK    1  A    between atoms: _1  and  _3
REMARK    2  A    between atoms: _3  and  _4
REMARK    3  A    between atoms: _3  and  _6
REMARK    4  A    between atoms: _6  and  _7
REMARK    5  A    between atoms: _7  and  _8
REMARK    6  A    between atoms: _8  and  _9
REMARK    7  A    between atoms: _18  and  _20
REMARK    8  A    between atoms: _20  and  _21
REMARK    9  A    between atoms: _20  and  _23
REMARK   10  A    between atoms: _23  and  _24
REMARK   11  A    between atoms: _27  and  _29
REMARK   12  A    between atoms: _29  and  _30
REMARK   13  A    between atoms: _29  and  _32
REMARK   14  A    between atoms: _32  and  _33
REMARK   15  A    between atoms: _36  and  _38
REMARK   16  A    between atoms: _38  and  _39
REMARK   17  A    between atoms: _38  and  _41
REMARK   18  A    between atoms: _41  and  _42
REMARK   19  A    between atoms: _45  and  _47
REMARK   20  A    between atoms: _47  and  _48
REMARK   21  A    between atoms: _47  and  _50
REMARK   22  A    between atoms: _50  and  _51
REMARK   23  A    between atoms: _54  and  _56
REMARK   24  A    between atoms: _56  and  _57
REMARK   25  A    between atoms: _59  and  _61
REMARK   26  A    between atoms: _61  and  _62
REMARK   27  A    between atoms: _65  and  _67
REMARK   28  A    between atoms: _67  and  _68
REMARK   29  A    between atoms: _67  and  _70
REMARK   30  A    between atoms: _70  and  _71
REMARK   31  A    between atoms: _74  and  _76
REMARK   32  A    between atoms: _76  and  _77
REMARK   33  A    between atoms: _76  and  _79
REMARK   34  A    between atoms: _79  and  _80
REMARK   35  A    between atoms: _83  and  _85
REMARK   36  A    between atoms: _85  and  _86
REMARK   37  A    between atoms: _85  and  _88
REMARK   38  A    between atoms: _88  and  _89
REMARK   39  A    between atoms: _92  and  _94
REMARK   40  A    between atoms: _94  and  _95
REMARK   41  A    between atoms: _94  and  _97
REMARK   42  A    between atoms: _97  and  _98
REMARK   43  A    between atoms: _101  and  _103
REMARK   44  A    between atoms: _103  and  _104
REMARK   45  A    between atoms: _103  and  _106
REMARK   46  A    between atoms: _106  and  _107
REMARK   47  A    between atoms: _107  and  _108
REMARK   48  A    between atoms: _108  and  _109
REMARK   49  A    between atoms: _109  and  _110
REMARK   50  A    between atoms: _114  and  _116
REMARK   51  A    between atoms: _116  and  _117
REMARK   52  A    between atoms: _116  and  _119
REMARK   53  A    between atoms: _119  and  _120
REMARK   54  A    between atoms: _120  and  _121
REMARK   55  A    between atoms: _125  and  _126
REMARK   56  A    between atoms: _125  and  _128
REMARK   57  A    between atoms: _128  and  _129
REMARK   58  A    between atoms: _132  and  _134
REMARK   59  A    between atoms: _134  and  _135
REMARK   60  A    between atoms: _137  and  _139
REMARK   61  A    between atoms: _139  and  _140
REMARK   62  A    between atoms: _142  and  _144
REMARK   63  A    between atoms: _144  and  _145
REMARK   64  A    between atoms: _144  and  _147
REMARK   65  A    between atoms: _147  and  _148
REMARK   66  A    between atoms: _151  and  _153
REMARK   67  A    between atoms: _153  and  _154
REMARK   68  A    between atoms: _156  and  _158
REMARK   69  A    between atoms: _158  and  _159
REMARK   70  A    between atoms: _161  and  _163
REMARK   71  A    between atoms: _163  and  _164
REMARK   72  A    between atoms: _163  and  _166
REMARK   73  A    between atoms: _166  and  _167
REMARK   74  A    between atoms: _173  and  _175
REMARK   75  A    between atoms: _175  and  _176
REMARK   76  A    between atoms: _175  and  _178
REMARK   77  A    between atoms: _178  and  _179
REMARK   78  A    between atoms: _182  and  _184
REMARK   79  A    between atoms: _184  and  _185
REMARK   80  A    between atoms: _184  and  _187
REMARK   81  A    between atoms: _187  and  _188
REMARK   82  A    between atoms: _192  and  _193
REMARK   83  A    between atoms: _198  and  _200
REMARK   84  A    between atoms: _200  and  _201
REMARK   85  A    between atoms: _200  and  _203
REMARK   86  A    between atoms: _203  and  _204
REMARK   87  A    between atoms: _207  and  _209
REMARK   88  A    between atoms: _209  and  _210
REMARK   89  A    between atoms: _209  and  _212
REMARK   90  A    between atoms: _212  and  _213
REMARK   91  A    between atoms: _218  and  _220
REMARK   92  A    between atoms: _220  and  _221
REMARK   93  A    between atoms: _220  and  _223
REMARK   94  A    between atoms: _226  and  _228
REMARK   95  A    between atoms: _228  and  _229
REMARK   96  A    between atoms: _228  and  _231
REMARK   97  A    between atoms: _231  and  _232
REMARK   98  A    between atoms: _235  and  _237
REMARK   99  A    between atoms: _237  and  _238
REMARK  100  A    between atoms: _240  and  _242
REMARK  101  A    between atoms: _242  and  _243
REMARK  102  A    between atoms: _242  and  _245
REMARK  103  A    between atoms: _245  and  _246
REMARK  104  A    between atoms: _246  and  _247
REMARK  105  A    between atoms: _247  and  _248
REMARK  106  A    between atoms: _257  and  _259
REMARK  107  A    between atoms: _259  and  _260
REMARK  108  A    between atoms: _259  and  _262
REMARK  109  A    between atoms: _262  and  _263
REMARK  110  A    between atoms: _268  and  _270
REMARK  111  A    between atoms: _270  and  _271
REMARK  112  A    between atoms: _270  and  _273
REMARK  113  A    between atoms: _273  and  _274
REMARK  114  A    between atoms: _274  and  _275
REMARK  115  A    between atoms: _275  and  _276
REMARK  116  A    between atoms: _285  and  _287
REMARK  117  A    between atoms: _287  and  _288
REMARK  118  A    between atoms: _287  and  _290
REMARK  119  A    between atoms: _290  and  _291
REMARK  120  A    between atoms: _294  and  _296
REMARK  121  A    between atoms: _296  and  _297
REMARK  122  A    between atoms: _296  and  _299
REMARK  123  A    between atoms: _299  and  _300
REMARK  124  A    between atoms: _303  and  _305
REMARK  125  A    between atoms: _305  and  _306
REMARK  126  A    between atoms: _305  and  _308
REMARK  127  A    between atoms: _308  and  _309
REMARK  128  A    between atoms: _312  and  _314
REMARK  129  A    between atoms: _314  and  _315
REMARK  130  A    between atoms: _314  and  _317
REMARK  131  A    between atoms: _317  and  _318
REMARK  132  A    between atoms: _321  and  _323
REMARK  133  A    between atoms: _323  and  _324
REMARK  134  A    between atoms: _326  and  _328
REMARK  135  A    between atoms: _328  and  _329
REMARK  136  A    between atoms: _332  and  _334
REMARK  137  A    between atoms: _334  and  _335
REMARK  138  A    between atoms: _334  and  _337
REMARK  139  A    between atoms: _337  and  _338
REMARK  140  A    between atoms: _341  and  _343
REMARK  141  A    between atoms: _343  and  _344
REMARK  142  A    between atoms: _343  and  _346
REMARK  143  A    between atoms: _346  and  _347
REMARK  144  A    between atoms: _350  and  _352
REMARK  145  A    between atoms: _352  and  _353
REMARK  146  A    between atoms: _352  and  _355
REMARK  147  A    between atoms: _355  and  _356
REMARK  148  A    between atoms: _359  and  _361
REMARK  149  A    between atoms: _361  and  _362
REMARK  150  A    between atoms: _361  and  _364
REMARK  151  A    between atoms: _364  and  _365
REMARK  152  A    between atoms: _368  and  _370
REMARK  153  A    between atoms: _370  and  _371
REMARK  154  A    between atoms: _370  and  _373
REMARK  155  A    between atoms: _373  and  _374
REMARK  156  A    between atoms: _374  and  _375
REMARK  157  A    between atoms: _375  and  _376
REMARK  158  A    between atoms: _376  and  _377
REMARK  159  A    between atoms: _381  and  _383
REMARK  160  A    between atoms: _383  and  _384
REMARK  161  A    between atoms: _383  and  _386
REMARK  162  A    between atoms: _386  and  _387
REMARK  163  A    between atoms: _387  and  _388
REMARK  164  A    between atoms: _390  and  _392
REMARK  165  A    between atoms: _392  and  _393
REMARK  166  A    between atoms: _392  and  _395
REMARK  167  A    between atoms: _395  and  _396
REMARK  168  A    between atoms: _399  and  _401
REMARK  169  A    between atoms: _401  and  _402
REMARK  170  A    between atoms: _404  and  _406
REMARK  171  A    between atoms: _406  and  _407
REMARK  172  A    between atoms: _409  and  _411
REMARK  173  A    between atoms: _411  and  _412
REMARK  174  A    between atoms: _411  and  _414
REMARK  175  A    between atoms: _414  and  _415
REMARK  176  A    between atoms: _418  and  _420
REMARK  177  A    between atoms: _420  and  _421
REMARK  178  A    between atoms: _423  and  _425
REMARK  179  A    between atoms: _425  and  _426
REMARK  180  A    between atoms: _428  and  _430
REMARK  181  A    between atoms: _430  and  _431
REMARK  182  A    between atoms: _430  and  _433
REMARK  183  A    between atoms: _433  and  _434
REMARK  184  A    between atoms: _437  and  _439
REMARK  185  A    between atoms: _439  and  _440
REMARK  186  A    between atoms: _439  and  _442
REMARK  187  A    between atoms: _445  and  _447
REMARK  188  A    between atoms: _447  and  _448
REMARK  189  A    between atoms: _447  and  _450
REMARK  190  A    between atoms: _450  and  _451
REMARK  191  A    between atoms: _455  and  _456
REMARK  192  A    between atoms: _461  and  _463
REMARK  193  A    between atoms: _463  and  _464
REMARK  194  A    between atoms: _463  and  _466
REMARK  195  A    between atoms: _466  and  _467
REMARK  196  A    between atoms: _471  and  _472
REMARK  197  A    between atoms: _477  and  _479
REMARK  198  A    between atoms: _479  and  _480
REMARK  199  A    between atoms: _479  and  _482
REMARK  200  A    between atoms: _482  and  _483
REMARK  201  A    between atoms: _486  and  _488
REMARK  202  A    between atoms: _488  and  _489
REMARK  203  A    between atoms: _488  and  _491
REMARK  204  A    between atoms: _491  and  _492
REMARK  205  A    between atoms: _497  and  _499
REMARK  206  A    between atoms: _499  and  _500
REMARK  207  A    between atoms: _499  and  _502
REMARK  208  A    between atoms: _505  and  _507
REMARK  209  A    between atoms: _507  and  _508
REMARK  210  A    between atoms: _507  and  _510
REMARK  211  A    between atoms: _510  and  _511
REMARK  212  A    between atoms: _514  and  _516
REMARK  213  A    between atoms: _516  and  _517
REMARK  214  A    between atoms: _519  and  _521
REMARK  215  A    between atoms: _521  and  _522
REMARK  216  A    between atoms: _521  and  _524
REMARK  217  A    between atoms: _524  and  _525
REMARK  218  A    between atoms: _525  and  _526
REMARK  219  A    between atoms: _526  and  _527
REMARK                            x       y       z     vdW  Elec       q    Type
REMARK                         _______ _______ _______ _____ _____    ______ ____
ROOT
ATOM      1  C   GLY A   4      -3.994  13.539  22.628  0.00  0.00    +0.243 C 
ATOM      2  N   GLY A   5      -4.496  12.835  23.616  0.00  0.00    -0.295 N 
ATOM      3  H   GLY A   5      -4.360  11.804  23.641  0.00  0.00    +0.150 HD
ATOM      4  O   GLY A   4      -4.157  14.753  22.535  0.00  0.00    -0.273 OA
ENDROOT
BRANCH   2   5
ATOM      5  CA  GLY A   5      -5.230  13.484  24.657  0.00  0.00    +0.176 C 
BRANCH   5   6
ATOM      6  C   GLY A   5      -4.443  13.319  25.901  0.00  0.00    +0.243 C 
ATOM      7  N   ILE A   6      -5.075  13.651  27.016  0.00  0.00    -0.297 N 
ATOM      8  H   ILE A   6      -6.035  14.044  26.943  0.00  0.00    +0.150 HD
ATOM      9  O   GLY A   5      -3.291  12.890  25.859  0.00  0.00    -0.273 OA
BRANCH   7  10
ATOM     10  CA  ILE A   6      -4.496  13.494  28.327  0.00  0.00    +0.149 C 
BRANCH  10  11
ATOM     11  C   ILE A   6      -3.612  12.246  28.413  0.00  0.00    +0.241 C 
ATOM     12  O   ILE A   6      -2.515  12.275  29.006  0.00  0.00    -0.273 OA
ATOM     13  N   GLY A   7      -4.083  11.170  27.797  0.00  0.00    -0.295 N 
ATOM     14  H   GLY A   7      -4.937  11.267  27.211  0.00  0.00    +0.150 HD
BRANCH  13  15
ATOM     15  CA  GLY A   7      -3.458   9.858  27.904  0.00  0.00    +0.176 C 
BRANCH  15  16
ATOM     16  C   GLY A   7      -2.907   9.370  26.588  0.00  0.00    +0.243 C 
ATOM     17  O   GLY A   7      -2.029   8.527  26.605  0.00  0.00    -0.273 OA
ATOM     18  N   GLY A   8      -3.493   9.853  25.469  0.00  0.00    -0.295 N 
ATOM     19  H   GLY A   8      -4.332  10.452  25.606  0.00  0.00    +0.150 HD
BRANCH  18  20
ATOM     20  CA  GLY A   8      -3.068   9.620  24.064  0.00  0.00    +0.176 C 
BRANCH  20  21
ATOM     21  C   GLY A   8      -1.564   9.588  23.837  0.00  0.00    +0.243 C 
ATOM     22  O   GLY A   8      -0.799  10.148  24.656  0.00  0.00    -0.273 OA
ATOM     23  N   PHE A   9      -1.100   9.036  22.706  0.00  0.00    -0.298 N 
ATOM     24  H   PHE A   9      -0.183   8.549  22.767  0.00  0.00    +0.150 HD
BRANCH  23  25
ATOM     25  CA  PHE A   9      -1.756   9.048  21.381  0.00  0.00    +0.141 C 
BRANCH  25  26
ATOM     26  C   PHE A   9      -2.540   7.819  20.932  0.00  0.00    +0.227 C 
ATOM     27  O   PHE A   9      -2.207   6.695  21.327  0.00  0.00    -0.286 OA
ENDBRANCH  25  26
BRANCH  25  28
ATOM     28  CB  PHE A   9      -0.670   9.376  20.336  0.00  0.00    +0.054 C 
BRANCH  28  29
ATOM     29  CG  PHE A   9      -0.182  10.779  20.424  0.00  0.00    -0.020 A 
ATOM     30  CD2 PHE A   9       0.675  11.160  21.435  0.00  0.00    -0.004 A 
ATOM     31  CE2 PHE A   9       1.093  12.456  21.545  0.00  0.00    -0.000 A 
ATOM     32  CZ  PHE A   9       0.638  13.401  20.645  0.00  0.00    -0.000 A 
ATOM     33  CE1 PHE A   9      -0.242  13.046  19.657  0.00  0.00    -0.000 A 
ATOM     34  CD1 PHE A   9      -0.642  11.738  19.543  0.00  0.00    -0.004 A 
ENDBRANCH  28  29
ENDBRANCH  25  28
ENDBRANCH  23  25
ENDBRANCH  20  21
ENDBRANCH  18  20
ENDBRANCH  15  16
ENDBRANCH  13  15
ENDBRANCH  10  11
BRANCH  10  35
ATOM     35  CB  ILE A   6      -5.609  13.460  29.408  0.00  0.00    +0.027 C 
ATOM     36  CG2 ILE A   6      -6.093  12.040  29.649  0.00  0.00    +0.002 C 
BRANCH  35  37
ATOM     37  CG1 ILE A   6      -5.129  14.107  30.702  0.00  0.00    +0.002 C 
ATOM     38  CD1 ILE A   6      -4.921  15.566  30.589  0.00  0.00    +0.000 C 
ENDBRANCH  35  37
ENDBRANCH  10  35
ENDBRANCH   7  10
ENDBRANCH   5   6
ENDBRANCH   2   5
BRANCH   1  39
ATOM     39  CA  GLY A   4      -3.178  12.762  21.622  0.00  0.00    +0.176 C 
BRANCH  39  41
ATOM     40  C   ILE A   3      -4.155  11.874  19.583  0.00  0.00    +0.256 C 
ATOM     41  N   GLY A   4      -3.684  12.908  20.285  0.00  0.00    -0.292 N 
ATOM     42  H   GLY A   4      -3.683  13.852  19.849  0.00  0.00    +0.150 HD
ATOM     43  O   ILE A   3      -4.191  10.705  20.006  0.00  0.00    -0.269 OA
BRANCH  40  46
ATOM     44  C   MET A   2      -4.133  11.758  15.907  0.00  0.00    +0.244 C 
ATOM     45  N   ILE A   3      -4.935  11.615  16.956  0.00  0.00    -0.282 N 
ATOM     46  CA  ILE A   3      -4.769  12.289  18.243  0.00  0.00    +0.081 C 
ATOM     47  H   ILE A   3      -5.746  10.972  16.854  0.00  0.00    +0.155 HD
ATOM     48  O   MET A   2      -3.881  12.873  15.451  0.00  0.00    -0.273 OA
BRANCH  46  49
ATOM     49  CB  ILE A   3      -6.170  12.891  18.589  0.00  0.00    +0.041 C 
ATOM     50  CG2 ILE A   3      -6.700  13.704  17.423  0.00  0.00    +0.006 C 
BRANCH  49  51
ATOM     51  CG1 ILE A   3      -7.179  11.792  18.852  0.00  0.00    +0.006 C 
ATOM     52  CD1 ILE A   3      -8.471  12.287  19.421  0.00  0.00    +0.000 C 
ENDBRANCH  49  51
ENDBRANCH  46  49
BRANCH  44  53
ATOM     53  CA  MET A   2      -3.406  10.553  15.346  0.00  0.00    +0.150 C 
BRANCH  53  56
ATOM     54  C   LYS A   1      -5.158   9.977  13.639  0.00  0.00    +0.238 C 
ATOM     55  O   LYS A   1      -5.743   9.112  14.297  0.00  0.00    -0.274 OA
ATOM     56  N   MET A   2      -4.021  10.576  14.007  0.00  0.00    -0.297 N 
ATOM     57  H   MET A   2      -3.518  11.114  13.272  0.00  0.00    +0.150 HD
BRANCH  54  58
ATOM     58  CA  LYS A   1      -5.670  10.384  12.259  0.00  0.00    +0.145 C 
BRANCH  58  59
ATOM     59  N   LYS A   1      -6.293   9.268  11.546  0.00  0.00    -0.238 NA
ATOM     60  H   LYS A   1      -6.962   8.646  12.043  0.00  0.00    +0.142 HD
ENDBRANCH  58  59
BRANCH  58  61
ATOM     61  CB  LYS A   1      -6.613  11.587  12.351  0.00  0.00    +0.026 C 
BRANCH  61  62
ATOM     62  CG  LYS A   1      -5.902  12.919  12.664  0.00  0.00    -0.000 C 
BRANCH  62  63
ATOM     63  CD  LYS A   1      -6.882  14.092  12.817  0.00  0.00    -0.024 C 
BRANCH  63  64
ATOM     64  CE  LYS A   1      -6.312  15.246  13.655  0.00  0.00    -0.086 C 
BRANCH  64  65
ATOM     65  NZ  LYS A   1      -5.054  15.856  13.135  0.00  0.00    +0.380 N 
ATOM     66  HZ1 LYS A   1      -4.753  16.623  13.770  0.00  0.00    -0.089 HD
ATOM     67  HZ2 LYS A   1      -4.311  15.130  13.090  0.00  0.00    -0.089 HD
ATOM     68  HZ3 LYS A   1      -5.224  16.239  12.183  0.00  0.00    -0.089 HD
ENDBRANCH  64  65
ENDBRANCH  63  64
ENDBRANCH  62  63
ENDBRANCH  61  62
ENDBRANCH  58  61
ENDBRANCH  54  58
ENDBRANCH  53  56
BRANCH  53  69
ATOM     69  CB  MET A   2      -1.911  10.804  15.141  0.00  0.00    +0.041 C 
BRANCH  69  70
ATOM     70  CG  MET A   2      -1.104  10.795  16.385  0.00  0.00    +0.060 C 
BRANCH  70  71
ATOM     71  SD  MET A   2       0.610  10.974  15.916  0.00  0.00    -0.139 S 
ATOM     72  CE  MET A   2       0.851  12.761  16.036  0.00  0.00    +0.069 C 
ENDBRANCH  70  71
ENDBRANCH  69  70
ENDBRANCH  53  69
ENDBRANCH  44  53
ENDBRANCH  40  46
ENDBRANCH  39  41
ENDBRANCH   1  39
TORSDOF 31
REMARK  Name = ../refined-set-2016/3u7s/3u7s_pocket.pdb
REMARK  219 active torsions:
REMARK  status: ('A' for Active; 'I' for Inactive)
REMARK    1  A    between atoms: _1  and  _3
REMARK    2  A    between atoms: _3  and  _4
REMARK    3  A    between atoms: _3  and  _6
REMARK    4  A    between atoms: _6  and  _7
REMARK    5  A    between atoms: _7  and  _8
REMARK    6  A    between atoms: _8  and  _9
REMARK    7  A    between atoms: _18  and  _20
REMARK    8  A    between atoms: _20  and  _21
REMARK    9  A    between atoms: _20  and  _23
REMARK   10  A    between atoms: _23  and  _24
REMARK   11  A    between atoms: _27  and  _29
REMARK   12  A    between atoms: _29  and  _30
REMARK   13  A    between atoms: _29  and  _32
REMARK   14  A    between atoms: _32  and  _33
REMARK   15  A    between atoms: _36  and  _38
REMARK   16  A    between atoms: _38  and  _39
REMARK   17  A    between atoms: _38  and  _41
REMARK   18  A    between atoms: _41  and  _42
REMARK   19  A    between atoms: _45  and  _47
REMARK   20  A    between atoms: _47  and  _48
REMARK   21  A    between atoms: _47  and  _50
REMARK   22  A    between atoms: _50  and  _51
REMARK   23  A    between atoms: _54  and  _56
REMARK   24  A    between atoms: _56  and  _57
REMARK   25  A    between atoms: _59  and  _61
REMARK   26  A    between atoms: _61  and  _62
REMARK   27  A    between atoms: _65  and  _67
REMARK   28  A    between atoms: _67  and  _68
REMARK   29  A    between atoms: _67  and  _70
REMARK   30  A    between atoms: _70  and  _71
REMARK   31  A    between atoms: _74  and  _76
REMARK   32  A    between atoms: _76  and  _77
REMARK   33  A    between atoms: _76  and  _79
REMARK   34  A    between atoms: _79  and  _80
REMARK   35  A    between atoms: _83  and  _85
REMARK   36  A    between atoms: _85  and  _86
REMARK   37  A    between atoms: _85  and  _88
REMARK   38  A    between atoms: _88  and  _89
REMARK   39  A    between atoms: _92  and  _94
REMARK   40  A    between atoms: _94  and  _95
REMARK   41  A    between atoms: _94  and  _97
REMARK   42  A    between atoms: _97  and  _98
REMARK   43  A    between atoms: _101  and  _103
REMARK   44  A    between atoms: _103  and  _104
REMARK   45  A    between atoms: _103  and  _106
REMARK   46  A    between atoms: _106  and  _107
REMARK   47  A    between atoms: _107  and  _108
REMARK   48  A    between atoms: _108  and  _109
REMARK   49  A    between atoms: _109  and  _110
REMARK   50  A    between atoms: _114  and  _116
REMARK   51  A    between atoms: _116  and  _117
REMARK   52  A    between atoms: _116  and  _119
REMARK   53  A    between atoms: _119  and  _120
REMARK   54  A    between atoms: _120  and  _121
REMARK   55  A    between atoms: _125  and  _126
REMARK   56  A    between atoms: _125  and  _128
REMARK   57  A    between atoms: _128  and  _129
REMARK   58  A    between atoms: _132  and  _134
REMARK   59  A    between atoms: _134  and  _135
REMARK   60  A    between atoms: _137  and  _139
REMARK   61  A    between atoms: _139  and  _140
REMARK   62  A    between atoms: _142  and  _144
REMARK   63  A    between atoms: _144  and  _145
REMARK   64  A    between atoms: _144  and  _147
REMARK   65  A    between atoms: _147  and  _148
REMARK   66  A    between atoms: _151  and  _153
REMARK   67  A    between atoms: _153  and  _154
REMARK   68  A    between atoms: _156  and  _158
REMARK   69  A    between atoms: _158  and  _159
REMARK   70  A    between atoms: _161  and  _163
REMARK   71  A    between atoms: _163  and  _164
REMARK   72  A    between atoms: _163  and  _166
REMARK   73  A    between atoms: _166  and  _167
REMARK   74  A    between atoms: _173  and  _175
REMARK   75  A    between atoms: _175  and  _176
REMARK   76  A    between atoms: _175  and  _178
REMARK   77  A    between atoms: _178  and  _179
REMARK   78  A    between atoms: _182  and  _184
REMARK   79  A    between atoms: _184  and  _185
REMARK   80  A    between atoms: _184  and  _187
REMARK   81  A    between atoms: _187  and  _188
REMARK   82  A    between atoms: _192  and  _193
REMARK   83  A    between atoms: _198  and  _200
REMARK   84  A    between atoms: _200  and  _201
REMARK   85  A    between atoms: _200  and  _203
REMARK   86  A    between atoms: _203  and  _204
REMARK   87  A    between atoms: _207  and  _209
REMARK   88  A    between atoms: _209  and  _210
REMARK   89  A    between atoms: _209  and  _212
REMARK   90  A    between atoms: _212  and  _213
REMARK   91  A    between atoms: _218  and  _220
REMARK   92  A    between atoms: _220  and  _221
REMARK   93  A    between atoms: _220  and  _223
REMARK   94  A    between atoms: _226  and  _228
REMARK   95  A    between atoms: _228  and  _229
REMARK   96  A    between atoms: _228  and  _231
REMARK   97  A    between atoms: _231  and  _232
REMARK   98  A    between atoms: _235  and  _237
REMARK   99  A    between atoms: _237  and  _238
REMARK  100  A    between atoms: _240  and  _242
REMARK  101  A    between atoms: _242  and  _243
REMARK  102  A    between atoms: _242  and  _245
REMARK  103  A    between atoms: _245  and  _246
REMARK  104  A    between atoms: _246  and  _247
REMARK  105  A    between atoms: _247  and  _248
REMARK  106  A    between atoms: _257  and  _259
REMARK  107  A    between atoms: _259  and  _260
REMARK  108  A    between atoms: _259  and  _262
REMARK  109  A    between atoms: _262  and  _263
REMARK  110  A    between atoms: _268  and  _270
REMARK  111  A    between atoms: _270  and  _271
REMARK  112  A    between atoms: _270  and  _273
REMARK  113  A    between atoms: _273  and  _274
REMARK  114  A    between atoms: _274  and  _275
REMARK  115  A    between atoms: _275  and  _276
REMARK  116  A    between atoms: _285  and  _287
REMARK  117  A    between atoms: _287  and  _288
REMARK  118  A    between atoms: _287  and  _290
REMARK  119  A    between atoms: _290  and  _291
REMARK  120  A    between atoms: _294  and  _296
REMARK  121  A    between atoms: _296  and  _297
REMARK  122  A    between atoms: _296  and  _299
REMARK  123  A    between atoms: _299  and  _300
REMARK  124  A    between atoms: _303  and  _305
REMARK  125  A    between atoms: _305  and  _306
REMARK  126  A    between atoms: _305  and  _308
REMARK  127  A    between atoms: _308  and  _309
REMARK  128  A    between atoms: _312  and  _314
REMARK  129  A    between atoms: _314  and  _315
REMARK  130  A    between atoms: _314  and  _317
REMARK  131  A    between atoms: _317  and  _318
REMARK  132  A    between atoms: _321  and  _323
REMARK  133  A    between atoms: _323  and  _324
REMARK  134  A    between atoms: _326  and  _328
REMARK  135  A    between atoms: _328  and  _329
REMARK  136  A    between atoms: _332  and  _334
REMARK  137  A    between atoms: _334  and  _335
REMARK  138  A    between atoms: _334  and  _337
REMARK  139  A    between atoms: _337  and  _338
REMARK  140  A    between atoms: _341  and  _343
REMARK  141  A    between atoms: _343  and  _344
REMARK  142  A    between atoms: _343  and  _346
REMARK  143  A    between atoms: _346  and  _347
REMARK  144  A    between atoms: _350  and  _352
REMARK  145  A    between atoms: _352  and  _353
REMARK  146  A    between atoms: _352  and  _355
REMARK  147  A    between atoms: _355  and  _356
REMARK  148  A    between atoms: _359  and  _361
REMARK  149  A    between atoms: _361  and  _362
REMARK  150  A    between atoms: _361  and  _364
REMARK  151  A    between atoms: _364  and  _365
REMARK  152  A    between atoms: _368  and  _370
REMARK  153  A    between atoms: _370  and  _371
REMARK  154  A    between atoms: _370  and  _373
REMARK  155  A    between atoms: _373  and  _374
REMARK  156  A    between atoms: _374  and  _375
REMARK  157  A    between atoms: _375  and  _376
REMARK  158  A    between atoms: _376  and  _377
REMARK  159  A    between atoms: _381  and  _383
REMARK  160  A    between atoms: _383  and  _384
REMARK  161  A    between atoms: _383  and  _386
REMARK  162  A    between atoms: _386  and  _387
REMARK  163  A    between atoms: _387  and  _388
REMARK  164  A    between atoms: _390  and  _392
REMARK  165  A    between atoms: _392  and  _393
REMARK  166  A    between atoms: _392  and  _395
REMARK  167  A    between atoms: _395  and  _396
REMARK  168  A    between atoms: _399  and  _401
REMARK  169  A    between atoms: _401  and  _402
REMARK  170  A    between atoms: _404  and  _406
REMARK  171  A    between atoms: _406  and  _407
REMARK  172  A    between atoms: _409  and  _411
REMARK  173  A    between atoms: _411  and  _412
REMARK  174  A    between atoms: _411  and  _414
REMARK  175  A    between atoms: _414  and  _415
REMARK  176  A    between atoms: _418  and  _420
REMARK  177  A    between atoms: _420  and  _421
REMARK  178  A    between atoms: _423  and  _425
REMARK  179  A    between atoms: _425  and  _426
REMARK  180  A    between atoms: _428  and  _430
REMARK  181  A    between atoms: _430  and  _431
REMARK  182  A    between atoms: _430  and  _433
REMARK  183  A    between atoms: _433  and  _434
REMARK  184  A    between atoms: _437  and  _439
REMARK  185  A    between atoms: _439  and  _440
REMARK  186  A    between atoms: _439  and  _442
REMARK  187  A    between atoms: _445  and  _447
REMARK  188  A    between atoms: _447  and  _448
REMARK  189  A    between atoms: _447  and  _450
REMARK  190  A    between atoms: _450  and  _451
REMARK  191  A    between atoms: _455  and  _456
REMARK  192  A    between atoms: _461  and  _463
REMARK  193  A    between atoms: _463  and  _464
REMARK  194  A    between atoms: _463  and  _466
REMARK  195  A    between atoms: _466  and  _467
REMARK  196  A    between atoms: _471  and  _472
REMARK  197  A    between atoms: _477  and  _479
REMARK  198  A    between atoms: _479  and  _480
REMARK  199  A    between atoms: _479  and  _482
REMARK  200  A    between atoms: _482  and  _483
REMARK  201  A    between atoms: _486  and  _488
REMARK  202  A    between atoms: _488  and  _489
REMARK  203  A    between atoms: _488  and  _491
REMARK  204  A    between atoms: _491  and  _492
REMARK  205  A    between atoms: _497  and  _499
REMARK  206  A    between atoms: _499  and  _500
REMARK  207  A    between atoms: _499  and  _502
REMARK  208  A    between atoms: _505  and  _507
REMARK  209  A    between atoms: _507  and  _508
REMARK  210  A    between atoms: _507  and  _510
REMARK  211  A    between atoms: _510  and  _511
REMARK  212  A    between atoms: _514  and  _516
REMARK  213  A    between atoms: _516  and  _517
REMARK  214  A    between atoms: _519  and  _521
REMARK  215  A    between atoms: _521  and  _522
REMARK  216  A    between atoms: _521  and  _524
REMARK  217  A    between atoms: _524  and  _525
REMARK  218  A    between atoms: _525  and  _526
REMARK  219  A    between atoms: _526  and  _527
REMARK                            x       y       z     vdW  Elec       q    Type
REMARK                         _______ _______ _______ _____ _____    ______ ____
ROOT
ATOM      1  CA  LEU A   1     -13.343  12.399  14.188  0.00  0.00    +0.133 C 
ENDROOT
BRANCH   1   2
ATOM      2  N   LEU A   1     -14.126  13.604  13.896  0.00  0.00    -0.239 NA
ATOM      3  H   LEU A   1     -14.187  14.344  14.625  0.00  0.00    +0.142 HD
ENDBRANCH   1   2
BRANCH   1   4
ATOM      4  C   LEU A   1     -14.183  11.335  14.866  0.00  0.00    +0.224 C 
ATOM      5  O   LEU A   1     -14.974  11.628  15.769  0.00  0.00    -0.287 OA
ENDBRANCH   1   4
BRANCH   1   6
ATOM      6  CB  LEU A   1     -12.145  12.730  15.101  0.00  0.00    +0.025 C 
BRANCH   6   7
ATOM      7  CG  LEU A   1     -11.219  13.864  14.665  0.00  0.00    +0.002 C 
ATOM      8  CD2 LEU A   1     -10.086  14.037  15.670  0.00  0.00    +0.000 C 
ATOM      9  CD1 LEU A   1     -10.666  13.649  13.257  0.00  0.00    +0.000 C 
ENDBRANCH   6   7
ENDBRANCH   1   6
TORSDOF 4
REMARK  Name = ../refined-set-2016/3u7s/3u7s_pocket.pdb
REMARK  219 active torsions:
REMARK  status: ('A' for Active; 'I' for Inactive)
REMARK    1  A    between atoms: _1  and  _3
REMARK    2  A    between atoms: _3  and  _4
REMARK    3  A    between atoms: _3  and  _6
REMARK    4  A    between atoms: _6  and  _7
REMARK    5  A    between atoms: _7  and  _8
REMARK    6  A    between atoms: _8  and  _9
REMARK    7  A    between atoms: _18  and  _20
REMARK    8  A    between atoms: _20  and  _21
REMARK    9  A    between atoms: _20  and  _23
REMARK   10  A    between atoms: _23  and  _24
REMARK   11  A    between atoms: _27  and  _29
REMARK   12  A    between atoms: _29  and  _30
REMARK   13  A    between atoms: _29  and  _32
REMARK   14  A    between atoms: _32  and  _33
REMARK   15  A    between atoms: _36  and  _38
REMARK   16  A    between atoms: _38  and  _39
REMARK   17  A    between atoms: _38  and  _41
REMARK   18  A    between atoms: _41  and  _42
REMARK   19  A    between atoms: _45  and  _47
REMARK   20  A    between atoms: _47  and  _48
REMARK   21  A    between atoms: _47  and  _50
REMARK   22  A    between atoms: _50  and  _51
REMARK   23  A    between atoms: _54  and  _56
REMARK   24  A    between atoms: _56  and  _57
REMARK   25  A    between atoms: _59  and  _61
REMARK   26  A    between atoms: _61  and  _62
REMARK   27  A    between atoms: _65  and  _67
REMARK   28  A    between atoms: _67  and  _68
REMARK   29  A    between atoms: _67  and  _70
REMARK   30  A    between atoms: _70  and  _71
REMARK   31  A    between atoms: _74  and  _76
REMARK   32  A    between atoms: _76  and  _77
REMARK   33  A    between atoms: _76  and  _79
REMARK   34  A    between atoms: _79  and  _80
REMARK   35  A    between atoms: _83  and  _85
REMARK   36  A    between atoms: _85  and  _86
REMARK   37  A    between atoms: _85  and  _88
REMARK   38  A    between atoms: _88  and  _89
REMARK   39  A    between atoms: _92  and  _94
REMARK   40  A    between atoms: _94  and  _95
REMARK   41  A    between atoms: _94  and  _97
REMARK   42  A    between atoms: _97  and  _98
REMARK   43  A    between atoms: _101  and  _103
REMARK   44  A    between atoms: _103  and  _104
REMARK   45  A    between atoms: _103  and  _106
REMARK   46  A    between atoms: _106  and  _107
REMARK   47  A    between atoms: _107  and  _108
REMARK   48  A    between atoms: _108  and  _109
REMARK   49  A    between atoms: _109  and  _110
REMARK   50  A    between atoms: _114  and  _116
REMARK   51  A    between atoms: _116  and  _117
REMARK   52  A    between atoms: _116  and  _119
REMARK   53  A    between atoms: _119  and  _120
REMARK   54  A    between atoms: _120  and  _121
REMARK   55  A    between atoms: _125  and  _126
REMARK   56  A    between atoms: _125  and  _128
REMARK   57  A    between atoms: _128  and  _129
REMARK   58  A    between atoms: _132  and  _134
REMARK   59  A    between atoms: _134  and  _135
REMARK   60  A    between atoms: _137  and  _139
REMARK   61  A    between atoms: _139  and  _140
REMARK   62  A    between atoms: _142  and  _144
REMARK   63  A    between atoms: _144  and  _145
REMARK   64  A    between atoms: _144  and  _147
REMARK   65  A    between atoms: _147  and  _148
REMARK   66  A    between atoms: _151  and  _153
REMARK   67  A    between atoms: _153  and  _154
REMARK   68  A    between atoms: _156  and  _158
REMARK   69  A    between atoms: _158  and  _159
REMARK   70  A    between atoms: _161  and  _163
REMARK   71  A    between atoms: _163  and  _164
REMARK   72  A    between atoms: _163  and  _166
REMARK   73  A    between atoms: _166  and  _167
REMARK   74  A    between atoms: _173  and  _175
REMARK   75  A    between atoms: _175  and  _176
REMARK   76  A    between atoms: _175  and  _178
REMARK   77  A    between atoms: _178  and  _179
REMARK   78  A    between atoms: _182  and  _184
REMARK   79  A    between atoms: _184  and  _185
REMARK   80  A    between atoms: _184  and  _187
REMARK   81  A    between atoms: _187  and  _188
REMARK   82  A    between atoms: _192  and  _193
REMARK   83  A    between atoms: _198  and  _200
REMARK   84  A    between atoms: _200  and  _201
REMARK   85  A    between atoms: _200  and  _203
REMARK   86  A    between atoms: _203  and  _204
REMARK   87  A    between atoms: _207  and  _209
REMARK   88  A    between atoms: _209  and  _210
REMARK   89  A    between atoms: _209  and  _212
REMARK   90  A    between atoms: _212  and  _213
REMARK   91  A    between atoms: _218  and  _220
REMARK   92  A    between atoms: _220  and  _221
REMARK   93  A    between atoms: _220  and  _223
REMARK   94  A    between atoms: _226  and  _228
REMARK   95  A    between atoms: _228  and  _229
REMARK   96  A    between atoms: _228  and  _231
REMARK   97  A    between atoms: _231  and  _232
REMARK   98  A    between atoms: _235  and  _237
REMARK   99  A    between atoms: _237  and  _238
REMARK  100  A    between atoms: _240  and  _242
REMARK  101  A    between atoms: _242  and  _243
REMARK  102  A    between atoms: _242  and  _245
REMARK  103  A    between atoms: _245  and  _246
REMARK  104  A    between atoms: _246  and  _247
REMARK  105  A    between atoms: _247  and  _248
REMARK  106  A    between atoms: _257  and  _259
REMARK  107  A    between atoms: _259  and  _260
REMARK  108  A    between atoms: _259  and  _262
REMARK  109  A    between atoms: _262  and  _263
REMARK  110  A    between atoms: _268  and  _270
REMARK  111  A    between atoms: _270  and  _271
REMARK  112  A    between atoms: _270  and  _273
REMARK  113  A    between atoms: _273  and  _274
REMARK  114  A    between atoms: _274  and  _275
REMARK  115  A    between atoms: _275  and  _276
REMARK  116  A    between atoms: _285  and  _287
REMARK  117  A    between atoms: _287  and  _288
REMARK  118  A    between atoms: _287  and  _290
REMARK  119  A    between atoms: _290  and  _291
REMARK  120  A    between atoms: _294  and  _296
REMARK  121  A    between atoms: _296  and  _297
REMARK  122  A    between atoms: _296  and  _299
REMARK  123  A    between atoms: _299  and  _300
REMARK  124  A    between atoms: _303  and  _305
REMARK  125  A    between atoms: _305  and  _306
REMARK  126  A    between atoms: _305  and  _308
REMARK  127  A    between atoms: _308  and  _309
REMARK  128  A    between atoms: _312  and  _314
REMARK  129  A    between atoms: _314  and  _315
REMARK  130  A    between atoms: _314  and  _317
REMARK  131  A    between atoms: _317  and  _318
REMARK  132  A    between atoms: _321  and  _323
REMARK  133  A    between atoms: _323  and  _324
REMARK  134  A    between atoms: _326  and  _328
REMARK  135  A    between atoms: _328  and  _329
REMARK  136  A    between atoms: _332  and  _334
REMARK  137  A    between atoms: _334  and  _335
REMARK  138  A    between atoms: _334  and  _337
REMARK  139  A    between atoms: _337  and  _338
REMARK  140  A    between atoms: _341  and  _343
REMARK  141  A    between atoms: _343  and  _344
REMARK  142  A    between atoms: _343  and  _346
REMARK  143  A    between atoms: _346  and  _347
REMARK  144  A    between atoms: _350  and  _352
REMARK  145  A    between atoms: _352  and  _353
REMARK  146  A    between atoms: _352  and  _355
REMARK  147  A    between atoms: _355  and  _356
REMARK  148  A    between atoms: _359  and  _361
REMARK  149  A    between atoms: _361  and  _362
REMARK  150  A    between atoms: _361  and  _364
REMARK  151  A    between atoms: _364  and  _365
REMARK  152  A    between atoms: _368  and  _370
REMARK  153  A    between atoms: _370  and  _371
REMARK  154  A    between atoms: _370  and  _373
REMARK  155  A    between atoms: _373  and  _374
REMARK  156  A    between atoms: _374  and  _375
REMARK  157  A    between atoms: _375  and  _376
REMARK  158  A    between atoms: _376  and  _377
REMARK  159  A    between atoms: _381  and  _383
REMARK  160  A    between atoms: _383  and  _384
REMARK  161  A    between atoms: _383  and  _386
REMARK  162  A    between atoms: _386  and  _387
REMARK  163  A    between atoms: _387  and  _388
REMARK  164  A    between atoms: _390  and  _392
REMARK  165  A    between atoms: _392  and  _393
REMARK  166  A    between atoms: _392  and  _395
REMARK  167  A    between atoms: _395  and  _396
REMARK  168  A    between atoms: _399  and  _401
REMARK  169  A    between atoms: _401  and  _402
REMARK  170  A    between atoms: _404  and  _406
REMARK  171  A    between atoms: _406  and  _407
REMARK  172  A    between atoms: _409  and  _411
REMARK  173  A    between atoms: _411  and  _412
REMARK  174  A    between atoms: _411  and  _414
REMARK  175  A    between atoms: _414  and  _415
REMARK  176  A    between atoms: _418  and  _420
REMARK  177  A    between atoms: _420  and  _421
REMARK  178  A    between atoms: _423  and  _425
REMARK  179  A    between atoms: _425  and  _426
REMARK  180  A    between atoms: _428  and  _430
REMARK  181  A    between atoms: _430  and  _431
REMARK  182  A    between atoms: _430  and  _433
REMARK  183  A    between atoms: _433  and  _434
REMARK  184  A    between atoms: _437  and  _439
REMARK  185  A    between atoms: _439  and  _440
REMARK  186  A    between atoms: _439  and  _442
REMARK  187  A    between atoms: _445  and  _447
REMARK  188  A    between atoms: _447  and  _448
REMARK  189  A    between atoms: _447  and  _450
REMARK  190  A    between atoms: _450  and  _451
REMARK  191  A    between atoms: _455  and  _456
REMARK  192  A    between atoms: _461  and  _463
REMARK  193  A    between atoms: _463  and  _464
REMARK  194  A    between atoms: _463  and  _466
REMARK  195  A    between atoms: _466  and  _467
REMARK  196  A    between atoms: _471  and  _472
REMARK  197  A    between atoms: _477  and  _479
REMARK  198  A    between atoms: _479  and  _480
REMARK  199  A    between atoms: _479  and  _482
REMARK  200  A    between atoms: _482  and  _483
REMARK  201  A    between atoms: _486  and  _488
REMARK  202  A    between atoms: _488  and  _489
REMARK  203  A    between atoms: _488  and  _491
REMARK  204  A    between atoms: _491  and  _492
REMARK  205  A    between atoms: _497  and  _499
REMARK  206  A    between atoms: _499  and  _500
REMARK  207  A    between atoms: _499  and  _502
REMARK  208  A    between atoms: _505  and  _507
REMARK  209  A    between atoms: _507  and  _508
REMARK  210  A    between atoms: _507  and  _510
REMARK  211  A    between atoms: _510  and  _511
REMARK  212  A    between atoms: _514  and  _516
REMARK  213  A    between atoms: _516  and  _517
REMARK  214  A    between atoms: _519  and  _521
REMARK  215  A    between atoms: _521  and  _522
REMARK  216  A    between atoms: _521  and  _524
REMARK  217  A    between atoms: _524  and  _525
REMARK  218  A    between atoms: _525  and  _526
REMARK  219  A    between atoms: _526  and  _527
REMARK                            x       y       z     vdW  Elec       q    Type
REMARK                         _______ _______ _______ _____ _____    ______ ____
ROOT
ATOM      1  C   VAL A   5     -16.893  17.070  21.189  0.00  0.00    +0.241 C 
ATOM      2  N   ILE A   6     -17.467  18.245  21.473  0.00  0.00    -0.297 N 
ATOM      3  H   ILE A   6     -17.800  18.419  22.443  0.00  0.00    +0.150 HD
ATOM      4  O   VAL A   5     -16.599  16.709  20.036  0.00  0.00    -0.273 OA
ENDROOT
BRANCH   2   5
ATOM      5  CA  ILE A   6     -17.645  19.303  20.458  0.00  0.00    +0.149 C 
BRANCH   5   6
ATOM      6  C   ILE A   6     -16.469  20.276  20.586  0.00  0.00    +0.241 C 
ATOM      7  O   ILE A   6     -16.345  20.976  21.592  0.00  0.00    -0.273 OA
ATOM      8  N   GLY A   7     -15.599  20.308  19.572  0.00  0.00    -0.295 N 
ATOM      9  H   GLY A   7     -15.830  19.803  18.693  0.00  0.00    +0.150 HD
BRANCH   8  10
ATOM     10  CA  GLY A   7     -14.326  21.035  19.663  0.00  0.00    +0.176 C 
BRANCH  10  11
ATOM     11  C   GLY A   7     -14.397  22.443  19.102  0.00  0.00    +0.243 C 
ATOM     12  N   ARG A   8     -13.289  23.167  19.117  0.00  0.00    -0.297 N 
ATOM     13  H   ARG A   8     -12.397  22.748  19.448  0.00  0.00    +0.150 HD
ATOM     14  O   GLY A   7     -15.431  22.876  18.635  0.00  0.00    -0.273 OA
BRANCH  12  15
ATOM     15  CA  ARG A   8     -13.323  24.563  18.665  0.00  0.00    +0.149 C 
BRANCH  15  16
ATOM     16  C   ARG A   8     -13.643  24.693  17.185  0.00  0.00    +0.241 C 
ATOM     17  O   ARG A   8     -14.171  25.712  16.759  0.00  0.00    -0.273 OA
ATOM     18  N   ASN A   9     -13.304  23.678  16.402  0.00  0.00    -0.298 N 
ATOM     19  H   ASN A   9     -12.832  22.848  16.814  0.00  0.00    +0.150 HD
BRANCH  18  20
ATOM     20  CA  ASN A   9     -13.585  23.711  14.965  0.00  0.00    +0.146 C 
BRANCH  20  21
ATOM     21  C   ASN A   9     -15.084  23.850  14.700  0.00  0.00    +0.227 C 
ATOM     22  O   ASN A   9     -15.470  24.474  13.733  0.00  0.00    -0.286 OA
ENDBRANCH  20  21
BRANCH  20  23
ATOM     23  CB  ASN A   9     -13.030  22.465  14.270  0.00  0.00    +0.112 C 
BRANCH  23  24
ATOM     24  CG  ASN A   9     -13.810  21.215  14.618  0.00  0.00    +0.222 C 
ATOM     25  OD1 ASN A   9     -14.030  20.900  15.792  0.00  0.00    -0.275 OA
ATOM     26  ND2 ASN A   9     -14.247  20.508  13.607  0.00  0.00    -0.329 N 
ATOM     27 HD21 ASN A   9     -14.802  19.645  13.777  0.00  0.00    +0.145 HD
ATOM     28 HD22 ASN A   9     -14.039  20.809  12.633  0.00  0.00    +0.145 HD
ENDBRANCH  23  24
ENDBRANCH  20  23
ENDBRANCH  18  20
ENDBRANCH  15  16
BRANCH  15  29
ATOM     29  CB  ARG A   8     -12.004  25.254  18.961  0.00  0.00    +0.033 C 
BRANCH  29  30
ATOM     30  CG  ARG A   8     -11.722  25.420  20.451  0.00  0.00    +0.045 C 
BRANCH  30  31
ATOM     31  CD  ARG A   8     -10.494  26.265  20.659  0.00  0.00    +0.174 C 
BRANCH  31  32
ATOM     32  NE  ARG A   8      -9.290  25.602  20.116  0.00  0.00    -0.265 N 
ATOM     33  HE  ARG A   8      -8.895  24.810  20.662  0.00  0.00    +0.259 HD
ATOM     34  CZ  ARG A   8      -8.671  25.933  18.989  0.00  0.00    +0.342 C 
ATOM     35  NH2 ARG A   8      -7.570  25.266  18.613  0.00  0.00    -0.292 N 
ATOM     36 HH21 ARG A   8      -7.204  24.492  19.204  0.00  0.00    +0.255 HD
ATOM     37 HH22 ARG A   8      -7.082  25.522  17.731  0.00  0.00    +0.255 HD
ATOM     38  NH1 ARG A   8      -9.146  26.925  18.239  0.00  0.00    -0.292 N 
ATOM     39 HH11 ARG A   8     -10.000  27.439  18.536  0.00  0.00    +0.255 HD
ATOM     40 HH12 ARG A   8      -8.663  27.186  17.356  0.00  0.00    +0.255 HD
ENDBRANCH  31  32
ENDBRANCH  30  31
ENDBRANCH  29  30
ENDBRANCH  15  29
ENDBRANCH  12  15
ENDBRANCH  10  11
ENDBRANCH   8  10
ENDBRANCH   5   6
BRANCH   5  41
ATOM     41  CB  ILE A   6     -19.003  20.084  20.641  0.00  0.00    +0.027 C 
ATOM     42  CG2 ILE A   6     -19.197  21.193  19.533  0.00  0.00    +0.002 C 
BRANCH  41  43
ATOM     43  CG1 ILE A   6     -20.217  19.148  20.632  0.00  0.00    +0.002 C 
ATOM     44  CD1 ILE A   6     -20.370  18.383  19.334  0.00  0.00    +0.000 C 
ENDBRANCH  41  43
ENDBRANCH   5  41
ENDBRANCH   2   5
BRANCH   1  45
ATOM     45  CA  VAL A   5     -16.635  16.142  22.387  0.00  0.00    +0.149 C 
BRANCH  45  48
ATOM     46  C   ASN A   4     -18.087  14.308  23.003  0.00  0.00    +0.241 C 
ATOM     47  O   ASN A   4     -18.573  14.934  23.952  0.00  0.00    -0.273 OA
ATOM     48  N   VAL A   5     -17.220  14.835  22.154  0.00  0.00    -0.297 N 
ATOM     49  H   VAL A   5     -16.952  14.302  21.302  0.00  0.00    +0.150 HD
BRANCH  46  50
ATOM     50  CA  ASN A   4     -18.452  12.847  22.758  0.00  0.00    +0.158 C 
BRANCH  50  53
ATOM     51  C   LEU A   3     -17.377  11.914  24.698  0.00  0.00    +0.241 C 
ATOM     52  O   LEU A   3     -16.269  12.099  24.181  0.00  0.00    -0.273 OA
ATOM     53  N   ASN A   4     -18.503  12.170  24.050  0.00  0.00    -0.297 N 
ATOM     54  H   ASN A   4     -19.418  11.891  24.459  0.00  0.00    +0.150 HD
BRANCH  51  55
ATOM     55  CA  LEU A   3     -17.492  11.364  26.133  0.00  0.00    +0.149 C 
BRANCH  55  58
ATOM     56  C   PRO A   2     -16.491   9.237  26.915  0.00  0.00    +0.241 C 
ATOM     57  O   PRO A   2     -17.465   8.869  27.540  0.00  0.00    -0.273 OA
ATOM     58  N   LEU A   3     -16.374  10.442  26.350  0.00  0.00    -0.297 N 
ATOM     59  H   LEU A   3     -15.427  10.745  26.044  0.00  0.00    +0.150 HD
BRANCH  56  62
ATOM     60  C   THR A   1     -14.518   8.235  24.469  0.00  0.00    +0.244 C 
ATOM     61  N   PRO A   2     -14.331   8.663  25.741  0.00  0.00    -0.272 N 
ATOM     62  CA  PRO A   2     -15.299   8.294  26.783  0.00  0.00    +0.152 C 
ATOM     63  CB  PRO A   2     -14.456   8.330  28.057  0.00  0.00    +0.031 C 
ATOM     64  CG  PRO A   2     -13.452   9.363  27.794  0.00  0.00    +0.024 C 
ATOM     65  CD  PRO A   2     -13.164   9.363  26.326  0.00  0.00    +0.094 C 
ATOM     66  O   THR A   1     -15.475   7.530  24.148  0.00  0.00    -0.273 OA
BRANCH  60  67
ATOM     67  CA  THR A   1     -13.453   8.596  23.409  0.00  0.00    +0.172 C 
BRANCH  67  68
ATOM     68  CB  THR A   1     -13.678  10.029  22.820  0.00  0.00    +0.135 C 
ATOM     69  CG2 THR A   1     -14.950  10.104  21.970  0.00  0.00    +0.034 C 
BRANCH  68  70
ATOM     70  OG1 THR A   1     -13.739  10.997  23.873  0.00  0.00    -0.383 OA
ATOM     71  HG1 THR A   1     -14.489  10.776  24.480  0.00  0.00    +0.210 HD
ENDBRANCH  68  70
ENDBRANCH  67  68
BRANCH  67  72
ATOM     72  N   THR A   1     -13.425   7.592  22.337  0.00  0.00    -0.236 NA
ATOM     73  H   THR A   1     -13.943   7.790  21.457  0.00  0.00    +0.142 HD
ENDBRANCH  67  72
ENDBRANCH  60  67
ENDBRANCH  56  62
ENDBRANCH  55  58
BRANCH  55  74
ATOM     74  CB  LEU A   3     -17.443  12.542  27.121  0.00  0.00    +0.029 C 
BRANCH  74  75
ATOM     75  CG  LEU A   3     -17.615  12.390  28.638  0.00  0.00    +0.002 C 
ATOM     76  CD2 LEU A   3     -17.705  13.764  29.259  0.00  0.00    +0.000 C 
ATOM     77  CD1 LEU A   3     -18.841  11.574  29.049  0.00  0.00    +0.000 C 
ENDBRANCH  74  75
ENDBRANCH  55  74
ENDBRANCH  51  55
ENDBRANCH  50  53
BRANCH  50  78
ATOM     78  CB  ASN A   4     -19.773  12.726  22.025  0.00  0.00    +0.114 C 
BRANCH  78  79
ATOM     79  CG  ASN A   4     -20.182  11.282  21.814  0.00  0.00    +0.222 C 
ATOM     80  ND2 ASN A   4     -21.486  11.029  21.880  0.00  0.00    -0.329 N 
ATOM     81 HD21 ASN A   4     -22.157  11.802  22.064  0.00  0.00    +0.145 HD
ATOM     82 HD22 ASN A   4     -21.835  10.058  21.748  0.00  0.00    +0.145 HD
ATOM     83  OD1 ASN A   4     -19.338  10.402  21.598  0.00  0.00    -0.275 OA
ENDBRANCH  78  79
ENDBRANCH  50  78
ENDBRANCH  46  50
ENDBRANCH  45  48
BRANCH  45  84
ATOM     84  CB  VAL A   5     -15.125  15.950  22.745  0.00  0.00    +0.027 C 
ATOM     85  CG2 VAL A   5     -15.001  15.649  24.244  0.00  0.00    +0.002 C 
ATOM     86  CG1 VAL A   5     -14.223  17.124  22.319  0.00  0.00    +0.002 C 
ENDBRANCH  45  84
ENDBRANCH   1  45
TORSDOF 32
REMARK  Name = ../refined-set-2016/3u7s/3u7s_pocket.pdb
REMARK  219 active torsions:
REMARK  status: ('A' for Active; 'I' for Inactive)
REMARK    1  A    between atoms: _1  and  _3
REMARK    2  A    between atoms: _3  and  _4
REMARK    3  A    between atoms: _3  and  _6
REMARK    4  A    between atoms: _6  and  _7
REMARK    5  A    between atoms: _7  and  _8
REMARK    6  A    between atoms: _8  and  _9
REMARK    7  A    between atoms: _18  and  _20
REMARK    8  A    between atoms: _20  and  _21
REMARK    9  A    between atoms: _20  and  _23
REMARK   10  A    between atoms: _23  and  _24
REMARK   11  A    between atoms: _27  and  _29
REMARK   12  A    between atoms: _29  and  _30
REMARK   13  A    between atoms: _29  and  _32
REMARK   14  A    between atoms: _32  and  _33
REMARK   15  A    between atoms: _36  and  _38
REMARK   16  A    between atoms: _38  and  _39
REMARK   17  A    between atoms: _38  and  _41
REMARK   18  A    between atoms: _41  and  _42
REMARK   19  A    between atoms: _45  and  _47
REMARK   20  A    between atoms: _47  and  _48
REMARK   21  A    between atoms: _47  and  _50
REMARK   22  A    between atoms: _50  and  _51
REMARK   23  A    between atoms: _54  and  _56
REMARK   24  A    between atoms: _56  and  _57
REMARK   25  A    between atoms: _59  and  _61
REMARK   26  A    between atoms: _61  and  _62
REMARK   27  A    between atoms: _65  and  _67
REMARK   28  A    between atoms: _67  and  _68
REMARK   29  A    between atoms: _67  and  _70
REMARK   30  A    between atoms: _70  and  _71
REMARK   31  A    between atoms: _74  and  _76
REMARK   32  A    between atoms: _76  and  _77
REMARK   33  A    between atoms: _76  and  _79
REMARK   34  A    between atoms: _79  and  _80
REMARK   35  A    between atoms: _83  and  _85
REMARK   36  A    between atoms: _85  and  _86
REMARK   37  A    between atoms: _85  and  _88
REMARK   38  A    between atoms: _88  and  _89
REMARK   39  A    between atoms: _92  and  _94
REMARK   40  A    between atoms: _94  and  _95
REMARK   41  A    between atoms: _94  and  _97
REMARK   42  A    between atoms: _97  and  _98
REMARK   43  A    between atoms: _101  and  _103
REMARK   44  A    between atoms: _103  and  _104
REMARK   45  A    between atoms: _103  and  _106
REMARK   46  A    between atoms: _106  and  _107
REMARK   47  A    between atoms: _107  and  _108
REMARK   48  A    between atoms: _108  and  _109
REMARK   49  A    between atoms: _109  and  _110
REMARK   50  A    between atoms: _114  and  _116
REMARK   51  A    between atoms: _116  and  _117
REMARK   52  A    between atoms: _116  and  _119
REMARK   53  A    between atoms: _119  and  _120
REMARK   54  A    between atoms: _120  and  _121
REMARK   55  A    between atoms: _125  and  _126
REMARK   56  A    between atoms: _125  and  _128
REMARK   57  A    between atoms: _128  and  _129
REMARK   58  A    between atoms: _132  and  _134
REMARK   59  A    between atoms: _134  and  _135
REMARK   60  A    between atoms: _137  and  _139
REMARK   61  A    between atoms: _139  and  _140
REMARK   62  A    between atoms: _142  and  _144
REMARK   63  A    between atoms: _144  and  _145
REMARK   64  A    between atoms: _144  and  _147
REMARK   65  A    between atoms: _147  and  _148
REMARK   66  A    between atoms: _151  and  _153
REMARK   67  A    between atoms: _153  and  _154
REMARK   68  A    between atoms: _156  and  _158
REMARK   69  A    between atoms: _158  and  _159
REMARK   70  A    between atoms: _161  and  _163
REMARK   71  A    between atoms: _163  and  _164
REMARK   72  A    between atoms: _163  and  _166
REMARK   73  A    between atoms: _166  and  _167
REMARK   74  A    between atoms: _173  and  _175
REMARK   75  A    between atoms: _175  and  _176
REMARK   76  A    between atoms: _175  and  _178
REMARK   77  A    between atoms: _178  and  _179
REMARK   78  A    between atoms: _182  and  _184
REMARK   79  A    between atoms: _184  and  _185
REMARK   80  A    between atoms: _184  and  _187
REMARK   81  A    between atoms: _187  and  _188
REMARK   82  A    between atoms: _192  and  _193
REMARK   83  A    between atoms: _198  and  _200
REMARK   84  A    between atoms: _200  and  _201
REMARK   85  A    between atoms: _200  and  _203
REMARK   86  A    between atoms: _203  and  _204
REMARK   87  A    between atoms: _207  and  _209
REMARK   88  A    between atoms: _209  and  _210
REMARK   89  A    between atoms: _209  and  _212
REMARK   90  A    between atoms: _212  and  _213
REMARK   91  A    between atoms: _218  and  _220
REMARK   92  A    between atoms: _220  and  _221
REMARK   93  A    between atoms: _220  and  _223
REMARK   94  A    between atoms: _226  and  _228
REMARK   95  A    between atoms: _228  and  _229
REMARK   96  A    between atoms: _228  and  _231
REMARK   97  A    between atoms: _231  and  _232
REMARK   98  A    between atoms: _235  and  _237
REMARK   99  A    between atoms: _237  and  _238
REMARK  100  A    between atoms: _240  and  _242
REMARK  101  A    between atoms: _242  and  _243
REMARK  102  A    between atoms: _242  and  _245
REMARK  103  A    between atoms: _245  and  _246
REMARK  104  A    between atoms: _246  and  _247
REMARK  105  A    between atoms: _247  and  _248
REMARK  106  A    between atoms: _257  and  _259
REMARK  107  A    between atoms: _259  and  _260
REMARK  108  A    between atoms: _259  and  _262
REMARK  109  A    between atoms: _262  and  _263
REMARK  110  A    between atoms: _268  and  _270
REMARK  111  A    between atoms: _270  and  _271
REMARK  112  A    between atoms: _270  and  _273
REMARK  113  A    between atoms: _273  and  _274
REMARK  114  A    between atoms: _274  and  _275
REMARK  115  A    between atoms: _275  and  _276
REMARK  116  A    between atoms: _285  and  _287
REMARK  117  A    between atoms: _287  and  _288
REMARK  118  A    between atoms: _287  and  _290
REMARK  119  A    between atoms: _290  and  _291
REMARK  120  A    between atoms: _294  and  _296
REMARK  121  A    between atoms: _296  and  _297
REMARK  122  A    between atoms: _296  and  _299
REMARK  123  A    between atoms: _299  and  _300
REMARK  124  A    between atoms: _303  and  _305
REMARK  125  A    between atoms: _305  and  _306
REMARK  126  A    between atoms: _305  and  _308
REMARK  127  A    between atoms: _308  and  _309
REMARK  128  A    between atoms: _312  and  _314
REMARK  129  A    between atoms: _314  and  _315
REMARK  130  A    between atoms: _314  and  _317
REMARK  131  A    between atoms: _317  and  _318
REMARK  132  A    between atoms: _321  and  _323
REMARK  133  A    between atoms: _323  and  _324
REMARK  134  A    between atoms: _326  and  _328
REMARK  135  A    between atoms: _328  and  _329
REMARK  136  A    between atoms: _332  and  _334
REMARK  137  A    between atoms: _334  and  _335
REMARK  138  A    between atoms: _334  and  _337
REMARK  139  A    between atoms: _337  and  _338
REMARK  140  A    between atoms: _341  and  _343
REMARK  141  A    between atoms: _343  and  _344
REMARK  142  A    between atoms: _343  and  _346
REMARK  143  A    between atoms: _346  and  _347
REMARK  144  A    between atoms: _350  and  _352
REMARK  145  A    between atoms: _352  and  _353
REMARK  146  A    between atoms: _352  and  _355
REMARK  147  A    between atoms: _355  and  _356
REMARK  148  A    between atoms: _359  and  _361
REMARK  149  A    between atoms: _361  and  _362
REMARK  150  A    between atoms: _361  and  _364
REMARK  151  A    between atoms: _364  and  _365
REMARK  152  A    between atoms: _368  and  _370
REMARK  153  A    between atoms: _370  and  _371
REMARK  154  A    between atoms: _370  and  _373
REMARK  155  A    between atoms: _373  and  _374
REMARK  156  A    between atoms: _374  and  _375
REMARK  157  A    between atoms: _375  and  _376
REMARK  158  A    between atoms: _376  and  _377
REMARK  159  A    between atoms: _381  and  _383
REMARK  160  A    between atoms: _383  and  _384
REMARK  161  A    between atoms: _383  and  _386
REMARK  162  A    between atoms: _386  and  _387
REMARK  163  A    between atoms: _387  and  _388
REMARK  164  A    between atoms: _390  and  _392
REMARK  165  A    between atoms: _392  and  _393
REMARK  166  A    between atoms: _392  and  _395
REMARK  167  A    between atoms: _395  and  _396
REMARK  168  A    between atoms: _399  and  _401
REMARK  169  A    between atoms: _401  and  _402
REMARK  170  A    between atoms: _404  and  _406
REMARK  171  A    between atoms: _406  and  _407
REMARK  172  A    between atoms: _409  and  _411
REMARK  173  A    between atoms: _411  and  _412
REMARK  174  A    between atoms: _411  and  _414
REMARK  175  A    between atoms: _414  and  _415
REMARK  176  A    between atoms: _418  and  _420
REMARK  177  A    between atoms: _420  and  _421
REMARK  178  A    between atoms: _423  and  _425
REMARK  179  A    between atoms: _425  and  _426
REMARK  180  A    between atoms: _428  and  _430
REMARK  181  A    between atoms: _430  and  _431
REMARK  182  A    between atoms: _430  and  _433
REMARK  183  A    between atoms: _433  and  _434
REMARK  184  A    between atoms: _437  and  _439
REMARK  185  A    between atoms: _439  and  _440
REMARK  186  A    between atoms: _439  and  _442
REMARK  187  A    between atoms: _445  and  _447
REMARK  188  A    between atoms: _447  and  _448
REMARK  189  A    between atoms: _447  and  _450
REMARK  190  A    between atoms: _450  and  _451
REMARK  191  A    between atoms: _455  and  _456
REMARK  192  A    between atoms: _461  and  _463
REMARK  193  A    between atoms: _463  and  _464
REMARK  194  A    between atoms: _463  and  _466
REMARK  195  A    between atoms: _466  and  _467
REMARK  196  A    between atoms: _471  and  _472
REMARK  197  A    between atoms: _477  and  _479
REMARK  198  A    between atoms: _479  and  _480
REMARK  199  A    between atoms: _479  and  _482
REMARK  200  A    between atoms: _482  and  _483
REMARK  201  A    between atoms: _486  and  _488
REMARK  202  A    between atoms: _488  and  _489
REMARK  203  A    between atoms: _488  and  _491
REMARK  204  A    between atoms: _491  and  _492
REMARK  205  A    between atoms: _497  and  _499
REMARK  206  A    between atoms: _499  and  _500
REMARK  207  A    between atoms: _499  and  _502
REMARK  208  A    between atoms: _505  and  _507
REMARK  209  A    between atoms: _507  and  _508
REMARK  210  A    between atoms: _507  and  _510
REMARK  211  A    between atoms: _510  and  _511
REMARK  212  A    between atoms: _514  and  _516
REMARK  213  A    between atoms: _516  and  _517
REMARK  214  A    between atoms: _519  and  _521
REMARK  215  A    between atoms: _521  and  _522
REMARK  216  A    between atoms: _521  and  _524
REMARK  217  A    between atoms: _524  and  _525
REMARK  218  A    between atoms: _525  and  _526
REMARK  219  A    between atoms: _526  and  _527
REMARK                            x       y       z     vdW  Elec       q    Type
REMARK                         _______ _______ _______ _____ _____    ______ ____
ROOT
ATOM      1  NE  ARG A   1      -4.254  23.696  21.111  0.00  0.00    -0.265 N 
ATOM      2  CZ  ARG A   1      -3.279  22.800  21.119  0.00  0.00    +0.342 C 
ATOM      3  NH2 ARG A   1      -2.128  23.066  21.739  0.00  0.00    -0.292 N 
ATOM      4 HH21 ARG A   1      -1.994  23.979  22.218  0.00  0.00    +0.255 HD
ATOM      5 HH22 ARG A   1      -1.364  22.360  21.743  0.00  0.00    +0.255 HD
ATOM      6  NH1 ARG A   1      -3.456  21.632  20.503  0.00  0.00    -0.292 N 
ATOM      7 HH11 ARG A   1      -2.695  20.923  20.505  0.00  0.00    +0.255 HD
ATOM      8 HH12 ARG A   1      -4.355  21.429  20.021  0.00  0.00    +0.255 HD
ATOM      9  HE  ARG A   1      -5.133  23.450  20.612  0.00  0.00    +0.259 HD
ENDROOT
BRANCH   1  10
ATOM     10  CD  ARG A   1      -4.182  25.000  21.752  0.00  0.00    +0.174 C 
BRANCH  10  11
ATOM     11  CG  ARG A   1      -5.379  25.818  21.349  0.00  0.00    +0.045 C 
BRANCH  11  12
ATOM     12  CB  ARG A   1      -5.466  27.074  22.165  0.00  0.00    +0.029 C 
BRANCH  12  13
ATOM     13  CA  ARG A   1      -6.687  27.935  21.847  0.00  0.00    +0.133 C 
BRANCH  13  14
ATOM     14  N   ARG A   1      -6.572  28.511  20.502  0.00  0.00    -0.239 NA
ATOM     15  H   ARG A   1      -5.746  28.283  19.913  0.00  0.00    +0.142 HD
ENDBRANCH  13  14
BRANCH  13  16
ATOM     16  C   ARG A   1      -6.780  29.041  22.910  0.00  0.00    +0.224 C 
ATOM     17  O   ARG A   1      -6.003  30.021  22.836  0.00  0.00    -0.287 OA
ENDBRANCH  13  16
ENDBRANCH  12  13
ENDBRANCH  11  12
ENDBRANCH  10  11
ENDBRANCH   1  10
TORSDOF 6
REMARK  Name = ../refined-set-2016/3u7s/3u7s_pocket.pdb
REMARK  219 active torsions:
REMARK  status: ('A' for Active; 'I' for Inactive)
REMARK    1  A    between atoms: _1  and  _3
REMARK    2  A    between atoms: _3  and  _4
REMARK    3  A    between atoms: _3  and  _6
REMARK    4  A    between atoms: _6  and  _7
REMARK    5  A    between atoms: _7  and  _8
REMARK    6  A    between atoms: _8  and  _9
REMARK    7  A    between atoms: _18  and  _20
REMARK    8  A    between atoms: _20  and  _21
REMARK    9  A    between atoms: _20  and  _23
REMARK   10  A    between atoms: _23  and  _24
REMARK   11  A    between atoms: _27  and  _29
REMARK   12  A    between atoms: _29  and  _30
REMARK   13  A    between atoms: _29  and  _32
REMARK   14  A    between atoms: _32  and  _33
REMARK   15  A    between atoms: _36  and  _38
REMARK   16  A    between atoms: _38  and  _39
REMARK   17  A    between atoms: _38  and  _41
REMARK   18  A    between atoms: _41  and  _42
REMARK   19  A    between atoms: _45  and  _47
REMARK   20  A    between atoms: _47  and  _48
REMARK   21  A    between atoms: _47  and  _50
REMARK   22  A    between atoms: _50  and  _51
REMARK   23  A    between atoms: _54  and  _56
REMARK   24  A    between atoms: _56  and  _57
REMARK   25  A    between atoms: _59  and  _61
REMARK   26  A    between atoms: _61  and  _62
REMARK   27  A    between atoms: _65  and  _67
REMARK   28  A    between atoms: _67  and  _68
REMARK   29  A    between atoms: _67  and  _70
REMARK   30  A    between atoms: _70  and  _71
REMARK   31  A    between atoms: _74  and  _76
REMARK   32  A    between atoms: _76  and  _77
REMARK   33  A    between atoms: _76  and  _79
REMARK   34  A    between atoms: _79  and  _80
REMARK   35  A    between atoms: _83  and  _85
REMARK   36  A    between atoms: _85  and  _86
REMARK   37  A    between atoms: _85  and  _88
REMARK   38  A    between atoms: _88  and  _89
REMARK   39  A    between atoms: _92  and  _94
REMARK   40  A    between atoms: _94  and  _95
REMARK   41  A    between atoms: _94  and  _97
REMARK   42  A    between atoms: _97  and  _98
REMARK   43  A    between atoms: _101  and  _103
REMARK   44  A    between atoms: _103  and  _104
REMARK   45  A    between atoms: _103  and  _106
REMARK   46  A    between atoms: _106  and  _107
REMARK   47  A    between atoms: _107  and  _108
REMARK   48  A    between atoms: _108  and  _109
REMARK   49  A    between atoms: _109  and  _110
REMARK   50  A    between atoms: _114  and  _116
REMARK   51  A    between atoms: _116  and  _117
REMARK   52  A    between atoms: _116  and  _119
REMARK   53  A    between atoms: _119  and  _120
REMARK   54  A    between atoms: _120  and  _121
REMARK   55  A    between atoms: _125  and  _126
REMARK   56  A    between atoms: _125  and  _128
REMARK   57  A    between atoms: _128  and  _129
REMARK   58  A    between atoms: _132  and  _134
REMARK   59  A    between atoms: _134  and  _135
REMARK   60  A    between atoms: _137  and  _139
REMARK   61  A    between atoms: _139  and  _140
REMARK   62  A    between atoms: _142  and  _144
REMARK   63  A    between atoms: _144  and  _145
REMARK   64  A    between atoms: _144  and  _147
REMARK   65  A    between atoms: _147  and  _148
REMARK   66  A    between atoms: _151  and  _153
REMARK   67  A    between atoms: _153  and  _154
REMARK   68  A    between atoms: _156  and  _158
REMARK   69  A    between atoms: _158  and  _159
REMARK   70  A    between atoms: _161  and  _163
REMARK   71  A    between atoms: _163  and  _164
REMARK   72  A    between atoms: _163  and  _166
REMARK   73  A    between atoms: _166  and  _167
REMARK   74  A    between atoms: _173  and  _175
REMARK   75  A    between atoms: _175  and  _176
REMARK   76  A    between atoms: _175  and  _178
REMARK   77  A    between atoms: _178  and  _179
REMARK   78  A    between atoms: _182  and  _184
REMARK   79  A    between atoms: _184  and  _185
REMARK   80  A    between atoms: _184  and  _187
REMARK   81  A    between atoms: _187  and  _188
REMARK   82  A    between atoms: _192  and  _193
REMARK   83  A    between atoms: _198  and  _200
REMARK   84  A    between atoms: _200  and  _201
REMARK   85  A    between atoms: _200  and  _203
REMARK   86  A    between atoms: _203  and  _204
REMARK   87  A    between atoms: _207  and  _209
REMARK   88  A    between atoms: _209  and  _210
REMARK   89  A    between atoms: _209  and  _212
REMARK   90  A    between atoms: _212  and  _213
REMARK   91  A    between atoms: _218  and  _220
REMARK   92  A    between atoms: _220  and  _221
REMARK   93  A    between atoms: _220  and  _223
REMARK   94  A    between atoms: _226  and  _228
REMARK   95  A    between atoms: _228  and  _229
REMARK   96  A    between atoms: _228  and  _231
REMARK   97  A    between atoms: _231  and  _232
REMARK   98  A    between atoms: _235  and  _237
REMARK   99  A    between atoms: _237  and  _238
REMARK  100  A    between atoms: _240  and  _242
REMARK  101  A    between atoms: _242  and  _243
REMARK  102  A    between atoms: _242  and  _245
REMARK  103  A    between atoms: _245  and  _246
REMARK  104  A    between atoms: _246  and  _247
REMARK  105  A    between atoms: _247  and  _248
REMARK  106  A    between atoms: _257  and  _259
REMARK  107  A    between atoms: _259  and  _260
REMARK  108  A    between atoms: _259  and  _262
REMARK  109  A    between atoms: _262  and  _263
REMARK  110  A    between atoms: _268  and  _270
REMARK  111  A    between atoms: _270  and  _271
REMARK  112  A    between atoms: _270  and  _273
REMARK  113  A    between atoms: _273  and  _274
REMARK  114  A    between atoms: _274  and  _275
REMARK  115  A    between atoms: _275  and  _276
REMARK  116  A    between atoms: _285  and  _287
REMARK  117  A    between atoms: _287  and  _288
REMARK  118  A    between atoms: _287  and  _290
REMARK  119  A    between atoms: _290  and  _291
REMARK  120  A    between atoms: _294  and  _296
REMARK  121  A    between atoms: _296  and  _297
REMARK  122  A    between atoms: _296  and  _299
REMARK  123  A    between atoms: _299  and  _300
REMARK  124  A    between atoms: _303  and  _305
REMARK  125  A    between atoms: _305  and  _306
REMARK  126  A    between atoms: _305  and  _308
REMARK  127  A    between atoms: _308  and  _309
REMARK  128  A    between atoms: _312  and  _314
REMARK  129  A    between atoms: _314  and  _315
REMARK  130  A    between atoms: _314  and  _317
REMARK  131  A    between atoms: _317  and  _318
REMARK  132  A    between atoms: _321  and  _323
REMARK  133  A    between atoms: _323  and  _324
REMARK  134  A    between atoms: _326  and  _328
REMARK  135  A    between atoms: _328  and  _329
REMARK  136  A    between atoms: _332  and  _334
REMARK  137  A    between atoms: _334  and  _335
REMARK  138  A    between atoms: _334  and  _337
REMARK  139  A    between atoms: _337  and  _338
REMARK  140  A    between atoms: _341  and  _343
REMARK  141  A    between atoms: _343  and  _344
REMARK  142  A    between atoms: _343  and  _346
REMARK  143  A    between atoms: _346  and  _347
REMARK  144  A    between atoms: _350  and  _352
REMARK  145  A    between atoms: _352  and  _353
REMARK  146  A    between atoms: _352  and  _355
REMARK  147  A    between atoms: _355  and  _356
REMARK  148  A    between atoms: _359  and  _361
REMARK  149  A    between atoms: _361  and  _362
REMARK  150  A    between atoms: _361  and  _364
REMARK  151  A    between atoms: _364  and  _365
REMARK  152  A    between atoms: _368  and  _370
REMARK  153  A    between atoms: _370  and  _371
REMARK  154  A    between atoms: _370  and  _373
REMARK  155  A    between atoms: _373  and  _374
REMARK  156  A    between atoms: _374  and  _375
REMARK  157  A    between atoms: _375  and  _376
REMARK  158  A    between atoms: _376  and  _377
REMARK  159  A    between atoms: _381  and  _383
REMARK  160  A    between atoms: _383  and  _384
REMARK  161  A    between atoms: _383  and  _386
REMARK  162  A    between atoms: _386  and  _387
REMARK  163  A    between atoms: _387  and  _388
REMARK  164  A    between atoms: _390  and  _392
REMARK  165  A    between atoms: _392  and  _393
REMARK  166  A    between atoms: _392  and  _395
REMARK  167  A    between atoms: _395  and  _396
REMARK  168  A    between atoms: _399  and  _401
REMARK  169  A    between atoms: _401  and  _402
REMARK  170  A    between atoms: _404  and  _406
REMARK  171  A    between atoms: _406  and  _407
REMARK  172  A    between atoms: _409  and  _411
REMARK  173  A    between atoms: _411  and  _412
REMARK  174  A    between atoms: _411  and  _414
REMARK  175  A    between atoms: _414  and  _415
REMARK  176  A    between atoms: _418  and  _420
REMARK  177  A    between atoms: _420  and  _421
REMARK  178  A    between atoms: _423  and  _425
REMARK  179  A    between atoms: _425  and  _426
REMARK  180  A    between atoms: _428  and  _430
REMARK  181  A    between atoms: _430  and  _431
REMARK  182  A    between atoms: _430  and  _433
REMARK  183  A    between atoms: _433  and  _434
REMARK  184  A    between atoms: _437  and  _439
REMARK  185  A    between atoms: _439  and  _440
REMARK  186  A    between atoms: _439  and  _442
REMARK  187  A    between atoms: _445  and  _447
REMARK  188  A    between atoms: _447  and  _448
REMARK  189  A    between atoms: _447  and  _450
REMARK  190  A    between atoms: _450  and  _451
REMARK  191  A    between atoms: _455  and  _456
REMARK  192  A    between atoms: _461  and  _463
REMARK  193  A    between atoms: _463  and  _464
REMARK  194  A    between atoms: _463  and  _466
REMARK  195  A    between atoms: _466  and  _467
REMARK  196  A    between atoms: _471  and  _472
REMARK  197  A    between atoms: _477  and  _479
REMARK  198  A    between atoms: _479  and  _480
REMARK  199  A    between atoms: _479  and  _482
REMARK  200  A    between atoms: _482  and  _483
REMARK  201  A    between atoms: _486  and  _488
REMARK  202  A    between atoms: _488  and  _489
REMARK  203  A    between atoms: _488  and  _491
REMARK  204  A    between atoms: _491  and  _492
REMARK  205  A    between atoms: _497  and  _499
REMARK  206  A    between atoms: _499  and  _500
REMARK  207  A    between atoms: _499  and  _502
REMARK  208  A    between atoms: _505  and  _507
REMARK  209  A    between atoms: _507  and  _508
REMARK  210  A    between atoms: _507  and  _510
REMARK  211  A    between atoms: _510  and  _511
REMARK  212  A    between atoms: _514  and  _516
REMARK  213  A    between atoms: _516  and  _517
REMARK  214  A    between atoms: _519  and  _521
REMARK  215  A    between atoms: _521  and  _522
REMARK  216  A    between atoms: _521  and  _524
REMARK  217  A    between atoms: _524  and  _525
REMARK  218  A    between atoms: _525  and  _526
REMARK  219  A    between atoms: _526  and  _527
REMARK                            x       y       z     vdW  Elec       q    Type
REMARK                         _______ _______ _______ _____ _____    ______ ____
ROOT
ATOM      1  C   GLY A   5     -13.796  19.117  30.064  0.00  0.00    +0.243 C 
ATOM      2  N   ALA A   6     -13.160  19.865  30.949  0.00  0.00    -0.297 N 
ATOM      3  H   ALA A   6     -13.174  20.900  30.851  0.00  0.00    +0.150 HD
ATOM      4  O   GLY A   5     -13.784  17.897  30.121  0.00  0.00    -0.273 OA
ENDROOT
BRANCH   2   5
ATOM      5  CA  ALA A   6     -12.437  19.254  32.065  0.00  0.00    +0.149 C 
ATOM      6  CB  ALA A   6     -11.029  19.820  32.119  0.00  0.00    +0.031 C 
BRANCH   5   7
ATOM      7  C   ALA A   6     -13.159  19.548  33.374  0.00  0.00    +0.241 C 
ATOM      8  N   ASP A   7     -13.491  18.505  34.145  0.00  0.00    -0.297 N 
ATOM      9  H   ASP A   7     -13.308  17.536  33.814  0.00  0.00    +0.150 HD
ATOM     10  O   ALA A   6     -13.414  20.715  33.683  0.00  0.00    -0.273 OA
BRANCH   8  11
ATOM     11  CA  ASP A   7     -14.105  18.722  35.440  0.00  0.00    +0.160 C 
BRANCH  11  12
ATOM     12  C   ASP A   7     -13.088  19.313  36.403  0.00  0.00    +0.241 C 
ATOM     13  O   ASP A   7     -13.448  20.061  37.306  0.00  0.00    -0.273 OA
ATOM     14  N   ASP A   8     -11.829  18.940  36.203  0.00  0.00    -0.297 N 
ATOM     15  H   ASP A   8     -11.599  18.449  35.315  0.00  0.00    +0.150 HD
BRANCH  14  16
ATOM     16  CA  ASP A   8     -10.747  19.179  37.158  0.00  0.00    +0.160 C 
BRANCH  16  17
ATOM     17  C   ASP A   8      -9.620  19.991  36.531  0.00  0.00    +0.241 C 
ATOM     18  N   THR A   9      -8.723  20.495  37.367  0.00  0.00    -0.295 N 
ATOM     19  H   THR A   9      -8.806  20.287  38.383  0.00  0.00    +0.150 HD
ATOM     20  O   ASP A   8      -9.552  20.134  35.328  0.00  0.00    -0.273 OA
BRANCH  18  21
ATOM     21  CA  THR A   9      -7.629  21.329  36.906  0.00  0.00    +0.176 C 
BRANCH  21  22
ATOM     22  C   THR A   9      -6.391  20.461  37.032  0.00  0.00    +0.243 C 
ATOM     23  O   THR A   9      -6.111  19.894  38.103  0.00  0.00    -0.273 OA
ATOM     24  N   ILE A  10      -5.678  20.314  35.924  0.00  0.00    -0.298 N 
ATOM     25  H   ILE A  10      -5.991  20.766  35.041  0.00  0.00    +0.150 HD
BRANCH  24  26
ATOM     26  CA  ILE A  10      -4.447  19.514  35.941  0.00  0.00    +0.137 C 
BRANCH  26  27
ATOM     27  C   ILE A  10      -3.250  20.206  35.281  0.00  0.00    +0.227 C 
ATOM     28  O   ILE A  10      -3.373  20.768  34.163  0.00  0.00    -0.286 OA
ENDBRANCH  26  27
BRANCH  26  29
ATOM     29  CB  ILE A  10      -4.658  18.077  35.380  0.00  0.00    +0.026 C 
ATOM     30  CG2 ILE A  10      -5.226  18.109  33.971  0.00  0.00    +0.002 C 
BRANCH  29  31
ATOM     31  CG1 ILE A  10      -3.333  17.282  35.455  0.00  0.00    +0.002 C 
ATOM     32  CD1 ILE A  10      -3.501  15.785  35.332  0.00  0.00    +0.000 C 
ENDBRANCH  29  31
ENDBRANCH  26  29
ENDBRANCH  24  26
ENDBRANCH  21  22
BRANCH  21  33
ATOM     33  CB  THR A   9      -7.547  22.627  37.746  0.00  0.00    +0.137 C 
ATOM     34  CG2 THR A   9      -6.249  23.378  37.500  0.00  0.00    +0.034 C 
BRANCH  33  35
ATOM     35  OG1 THR A   9      -8.655  23.467  37.393  0.00  0.00    -0.382 OA
ATOM     36  HG1 THR A   9      -9.502  22.992  37.585  0.00  0.00    +0.210 HD
ENDBRANCH  33  35
ENDBRANCH  21  33
ENDBRANCH  18  21
ENDBRANCH  16  17
BRANCH  16  37
ATOM     37  CB  ASP A   8     -10.189  17.846  37.643  0.00  0.00    +0.143 C 
BRANCH  37  38
ATOM     38  CG  ASP A   8     -11.260  16.951  38.221  0.00  0.00    +0.367 C 
ATOM     39  OD2 ASP A   8     -12.066  17.449  39.048  0.00  0.00    -0.246 OA
ATOM     40  OD1 ASP A   8     -11.300  15.753  37.851  0.00  0.00    -0.246 OA
ENDBRANCH  37  38
ENDBRANCH  16  37
ENDBRANCH  14  16
ENDBRANCH  11  12
BRANCH  11  41
ATOM     41  CB  ASP A   7     -14.626  17.426  36.070  0.00  0.00    +0.143 C 
BRANCH  41  42
ATOM     42  CG  ASP A   7     -15.654  16.711  35.232  0.00  0.00    +0.367 C 
ATOM     43  OD2 ASP A   7     -15.773  15.493  35.455  0.00  0.00    -0.246 OA
ATOM     44  OD1 ASP A   7     -16.333  17.324  34.374  0.00  0.00    -0.246 OA
ENDBRANCH  41  42
ENDBRANCH  11  41
ENDBRANCH   8  11
ENDBRANCH   5   7
ENDBRANCH   2   5
BRANCH   1  45
ATOM     45  CA  GLY A   5     -14.542  19.827  28.933  0.00  0.00    +0.176 C 
BRANCH  45  48
ATOM     46  C   THR A   4     -15.157  22.073  29.650  0.00  0.00    +0.243 C 
ATOM     47  O   THR A   4     -16.073  21.645  30.361  0.00  0.00    -0.273 OA
ATOM     48  N   GLY A   5     -14.394  21.278  28.898  0.00  0.00    -0.295 N 
ATOM     49  H   GLY A   5     -13.678  21.702  28.273  0.00  0.00    +0.150 HD
BRANCH  46  50
ATOM     50  CA  THR A   4     -14.819  23.571  29.615  0.00  0.00    +0.176 C 
BRANCH  50  53
ATOM     51  C   ASP A   3     -12.380  23.557  29.829  0.00  0.00    +0.241 C 
ATOM     52  O   ASP A   3     -12.430  22.887  30.867  0.00  0.00    -0.273 OA
ATOM     53  N   THR A   4     -13.461  23.853  29.103  0.00  0.00    -0.295 N 
ATOM     54  H   THR A   4     -13.346  24.288  28.165  0.00  0.00    +0.150 HD
BRANCH  51  55
ATOM     55  CA  ASP A   3     -11.024  24.003  29.286  0.00  0.00    +0.160 C 
BRANCH  55  57
ATOM     56  C   LEU A   2     -10.170  26.230  29.062  0.00  0.00    +0.241 C 
ATOM     57  N   ASP A   3     -10.561  25.249  29.845  0.00  0.00    -0.297 N 
ATOM     58  H   ASP A   3     -10.536  25.373  30.877  0.00  0.00    +0.150 HD
ATOM     59  O   LEU A   2     -10.464  26.303  27.858  0.00  0.00    -0.273 OA
BRANCH  56  60
ATOM     60  CA  LEU A   2      -9.335  27.302  29.735  0.00  0.00    +0.149 C 
BRANCH  60  63
ATOM     61  C   LEU A   1      -7.213  26.136  29.516  0.00  0.00    +0.238 C 
ATOM     62  O   LEU A   1      -7.467  25.321  30.439  0.00  0.00    -0.274 OA
ATOM     63  N   LEU A   2      -7.996  27.170  29.207  0.00  0.00    -0.297 N 
ATOM     64  H   LEU A   2      -7.632  27.904  28.566  0.00  0.00    +0.150 HD
BRANCH  61  65
ATOM     65  CA  LEU A   1      -5.924  26.039  28.680  0.00  0.00    +0.145 C 
BRANCH  65  66
ATOM     66  N   LEU A   1      -4.746  26.006  29.514  0.00  0.00    -0.238 NA
ATOM     67  H   LEU A   1      -4.414  25.084  29.862  0.00  0.00    +0.142 HD
ENDBRANCH  65  66
BRANCH  65  68
ATOM     68  CB  LEU A   1      -5.911  24.795  27.801  0.00  0.00    +0.026 C 
BRANCH  68  69
ATOM     69  CG  LEU A   1      -6.870  24.566  26.651  0.00  0.00    +0.002 C 
ATOM     70  CD2 LEU A   1      -6.678  23.128  26.162  0.00  0.00    +0.000 C 
ATOM     71  CD1 LEU A   1      -6.630  25.537  25.531  0.00  0.00    +0.000 C 
ENDBRANCH  68  69
ENDBRANCH  65  68
ENDBRANCH  61  65
ENDBRANCH  60  63
BRANCH  60  72
ATOM     72  CB  LEU A   2      -9.921  28.683  29.443  0.00  0.00    +0.029 C 
BRANCH  72  73
ATOM     73  CG  LEU A   2      -9.299  29.888  30.162  0.00  0.00    +0.002 C 
ATOM     74  CD2 LEU A   2      -9.544  29.789  31.658  0.00  0.00    +0.000 C 
ATOM     75  CD1 LEU A   2      -9.921  31.160  29.573  0.00  0.00    +0.000 C 
ENDBRANCH  72  73
ENDBRANCH  60  72
ENDBRANCH  56  60
ENDBRANCH  55  57
BRANCH  55  76
ATOM     76  CB  ASP A   3      -9.997  22.914  29.585  0.00  0.00    +0.143 C 
BRANCH  76  77
ATOM     77  CG  ASP A   3     -10.306  21.618  28.843  0.00  0.00    +0.367 C 
ATOM     78  OD2 ASP A   3      -9.440  20.719  28.838  0.00  0.00    -0.246 OA
ATOM     79  OD1 ASP A   3     -11.409  21.517  28.248  0.00  0.00    -0.246 OA
ENDBRANCH  76  77
ENDBRANCH  55  76
ENDBRANCH  51  55
ENDBRANCH  50  53
BRANCH  50  80
ATOM     80  CB  THR A   4     -15.887  24.316  28.806  0.00  0.00    +0.137 C 
ATOM     81  CG2 THR A   4     -15.703  25.832  28.926  0.00  0.00    +0.034 C 
BRANCH  80  82
ATOM     82  OG1 THR A   4     -15.806  23.925  27.430  0.00  0.00    -0.382 OA
ATOM     83  HG1 THR A   4     -15.957  22.949  27.356  0.00  0.00    +0.210 HD
ENDBRANCH  80  82
ENDBRANCH  50  80
ENDBRANCH  46  50
ENDBRANCH  45  48
ENDBRANCH   1  45
TORSDOF 36
REMARK  Name = ../refined-set-2016/3u7s/3u7s_pocket.pdb
REMARK  219 active torsions:
REMARK  status: ('A' for Active; 'I' for Inactive)
REMARK    1  A    between atoms: _1  and  _3
REMARK    2  A    between atoms: _3  and  _4
REMARK    3  A    between atoms: _3  and  _6
REMARK    4  A    between atoms: _6  and  _7
REMARK    5  A    between atoms: _7  and  _8
REMARK    6  A    between atoms: _8  and  _9
REMARK    7  A    between atoms: _18  and  _20
REMARK    8  A    between atoms: _20  and  _21
REMARK    9  A    between atoms: _20  and  _23
REMARK   10  A    between atoms: _23  and  _24
REMARK   11  A    between atoms: _27  and  _29
REMARK   12  A    between atoms: _29  and  _30
REMARK   13  A    between atoms: _29  and  _32
REMARK   14  A    between atoms: _32  and  _33
REMARK   15  A    between atoms: _36  and  _38
REMARK   16  A    between atoms: _38  and  _39
REMARK   17  A    between atoms: _38  and  _41
REMARK   18  A    between atoms: _41  and  _42
REMARK   19  A    between atoms: _45  and  _47
REMARK   20  A    between atoms: _47  and  _48
REMARK   21  A    between atoms: _47  and  _50
REMARK   22  A    between atoms: _50  and  _51
REMARK   23  A    between atoms: _54  and  _56
REMARK   24  A    between atoms: _56  and  _57
REMARK   25  A    between atoms: _59  and  _61
REMARK   26  A    between atoms: _61  and  _62
REMARK   27  A    between atoms: _65  and  _67
REMARK   28  A    between atoms: _67  and  _68
REMARK   29  A    between atoms: _67  and  _70
REMARK   30  A    between atoms: _70  and  _71
REMARK   31  A    between atoms: _74  and  _76
REMARK   32  A    between atoms: _76  and  _77
REMARK   33  A    between atoms: _76  and  _79
REMARK   34  A    between atoms: _79  and  _80
REMARK   35  A    between atoms: _83  and  _85
REMARK   36  A    between atoms: _85  and  _86
REMARK   37  A    between atoms: _85  and  _88
REMARK   38  A    between atoms: _88  and  _89
REMARK   39  A    between atoms: _92  and  _94
REMARK   40  A    between atoms: _94  and  _95
REMARK   41  A    between atoms: _94  and  _97
REMARK   42  A    between atoms: _97  and  _98
REMARK   43  A    between atoms: _101  and  _103
REMARK   44  A    between atoms: _103  and  _104
REMARK   45  A    between atoms: _103  and  _106
REMARK   46  A    between atoms: _106  and  _107
REMARK   47  A    between atoms: _107  and  _108
REMARK   48  A    between atoms: _108  and  _109
REMARK   49  A    between atoms: _109  and  _110
REMARK   50  A    between atoms: _114  and  _116
REMARK   51  A    between atoms: _116  and  _117
REMARK   52  A    between atoms: _116  and  _119
REMARK   53  A    between atoms: _119  and  _120
REMARK   54  A    between atoms: _120  and  _121
REMARK   55  A    between atoms: _125  and  _126
REMARK   56  A    between atoms: _125  and  _128
REMARK   57  A    between atoms: _128  and  _129
REMARK   58  A    between atoms: _132  and  _134
REMARK   59  A    between atoms: _134  and  _135
REMARK   60  A    between atoms: _137  and  _139
REMARK   61  A    between atoms: _139  and  _140
REMARK   62  A    between atoms: _142  and  _144
REMARK   63  A    between atoms: _144  and  _145
REMARK   64  A    between atoms: _144  and  _147
REMARK   65  A    between atoms: _147  and  _148
REMARK   66  A    between atoms: _151  and  _153
REMARK   67  A    between atoms: _153  and  _154
REMARK   68  A    between atoms: _156  and  _158
REMARK   69  A    between atoms: _158  and  _159
REMARK   70  A    between atoms: _161  and  _163
REMARK   71  A    between atoms: _163  and  _164
REMARK   72  A    between atoms: _163  and  _166
REMARK   73  A    between atoms: _166  and  _167
REMARK   74  A    between atoms: _173  and  _175
REMARK   75  A    between atoms: _175  and  _176
REMARK   76  A    between atoms: _175  and  _178
REMARK   77  A    between atoms: _178  and  _179
REMARK   78  A    between atoms: _182  and  _184
REMARK   79  A    between atoms: _184  and  _185
REMARK   80  A    between atoms: _184  and  _187
REMARK   81  A    between atoms: _187  and  _188
REMARK   82  A    between atoms: _192  and  _193
REMARK   83  A    between atoms: _198  and  _200
REMARK   84  A    between atoms: _200  and  _201
REMARK   85  A    between atoms: _200  and  _203
REMARK   86  A    between atoms: _203  and  _204
REMARK   87  A    between atoms: _207  and  _209
REMARK   88  A    between atoms: _209  and  _210
REMARK   89  A    between atoms: _209  and  _212
REMARK   90  A    between atoms: _212  and  _213
REMARK   91  A    between atoms: _218  and  _220
REMARK   92  A    between atoms: _220  and  _221
REMARK   93  A    between atoms: _220  and  _223
REMARK   94  A    between atoms: _226  and  _228
REMARK   95  A    between atoms: _228  and  _229
REMARK   96  A    between atoms: _228  and  _231
REMARK   97  A    between atoms: _231  and  _232
REMARK   98  A    between atoms: _235  and  _237
REMARK   99  A    between atoms: _237  and  _238
REMARK  100  A    between atoms: _240  and  _242
REMARK  101  A    between atoms: _242  and  _243
REMARK  102  A    between atoms: _242  and  _245
REMARK  103  A    between atoms: _245  and  _246
REMARK  104  A    between atoms: _246  and  _247
REMARK  105  A    between atoms: _247  and  _248
REMARK  106  A    between atoms: _257  and  _259
REMARK  107  A    between atoms: _259  and  _260
REMARK  108  A    between atoms: _259  and  _262
REMARK  109  A    between atoms: _262  and  _263
REMARK  110  A    between atoms: _268  and  _270
REMARK  111  A    between atoms: _270  and  _271
REMARK  112  A    between atoms: _270  and  _273
REMARK  113  A    between atoms: _273  and  _274
REMARK  114  A    between atoms: _274  and  _275
REMARK  115  A    between atoms: _275  and  _276
REMARK  116  A    between atoms: _285  and  _287
REMARK  117  A    between atoms: _287  and  _288
REMARK  118  A    between atoms: _287  and  _290
REMARK  119  A    between atoms: _290  and  _291
REMARK  120  A    between atoms: _294  and  _296
REMARK  121  A    between atoms: _296  and  _297
REMARK  122  A    between atoms: _296  and  _299
REMARK  123  A    between atoms: _299  and  _300
REMARK  124  A    between atoms: _303  and  _305
REMARK  125  A    between atoms: _305  and  _306
REMARK  126  A    between atoms: _305  and  _308
REMARK  127  A    between atoms: _308  and  _309
REMARK  128  A    between atoms: _312  and  _314
REMARK  129  A    between atoms: _314  and  _315
REMARK  130  A    between atoms: _314  and  _317
REMARK  131  A    between atoms: _317  and  _318
REMARK  132  A    between atoms: _321  and  _323
REMARK  133  A    between atoms: _323  and  _324
REMARK  134  A    between atoms: _326  and  _328
REMARK  135  A    between atoms: _328  and  _329
REMARK  136  A    between atoms: _332  and  _334
REMARK  137  A    between atoms: _334  and  _335
REMARK  138  A    between atoms: _334  and  _337
REMARK  139  A    between atoms: _337  and  _338
REMARK  140  A    between atoms: _341  and  _343
REMARK  141  A    between atoms: _343  and  _344
REMARK  142  A    between atoms: _343  and  _346
REMARK  143  A    between atoms: _346  and  _347
REMARK  144  A    between atoms: _350  and  _352
REMARK  145  A    between atoms: _352  and  _353
REMARK  146  A    between atoms: _352  and  _355
REMARK  147  A    between atoms: _355  and  _356
REMARK  148  A    between atoms: _359  and  _361
REMARK  149  A    between atoms: _361  and  _362
REMARK  150  A    between atoms: _361  and  _364
REMARK  151  A    between atoms: _364  and  _365
REMARK  152  A    between atoms: _368  and  _370
REMARK  153  A    between atoms: _370  and  _371
REMARK  154  A    between atoms: _370  and  _373
REMARK  155  A    between atoms: _373  and  _374
REMARK  156  A    between atoms: _374  and  _375
REMARK  157  A    between atoms: _375  and  _376
REMARK  158  A    between atoms: _376  and  _377
REMARK  159  A    between atoms: _381  and  _383
REMARK  160  A    between atoms: _383  and  _384
REMARK  161  A    between atoms: _383  and  _386
REMARK  162  A    between atoms: _386  and  _387
REMARK  163  A    between atoms: _387  and  _388
REMARK  164  A    between atoms: _390  and  _392
REMARK  165  A    between atoms: _392  and  _393
REMARK  166  A    between atoms: _392  and  _395
REMARK  167  A    between atoms: _395  and  _396
REMARK  168  A    between atoms: _399  and  _401
REMARK  169  A    between atoms: _401  and  _402
REMARK  170  A    between atoms: _404  and  _406
REMARK  171  A    between atoms: _406  and  _407
REMARK  172  A    between atoms: _409  and  _411
REMARK  173  A    between atoms: _411  and  _412
REMARK  174  A    between atoms: _411  and  _414
REMARK  175  A    between atoms: _414  and  _415
REMARK  176  A    between atoms: _418  and  _420
REMARK  177  A    between atoms: _420  and  _421
REMARK  178  A    between atoms: _423  and  _425
REMARK  179  A    between atoms: _425  and  _426
REMARK  180  A    between atoms: _428  and  _430
REMARK  181  A    between atoms: _430  and  _431
REMARK  182  A    between atoms: _430  and  _433
REMARK  183  A    between atoms: _433  and  _434
REMARK  184  A    between atoms: _437  and  _439
REMARK  185  A    between atoms: _439  and  _440
REMARK  186  A    between atoms: _439  and  _442
REMARK  187  A    between atoms: _445  and  _447
REMARK  188  A    between atoms: _447  and  _448
REMARK  189  A    between atoms: _447  and  _450
REMARK  190  A    between atoms: _450  and  _451
REMARK  191  A    between atoms: _455  and  _456
REMARK  192  A    between atoms: _461  and  _463
REMARK  193  A    between atoms: _463  and  _464
REMARK  194  A    between atoms: _463  and  _466
REMARK  195  A    between atoms: _466  and  _467
REMARK  196  A    between atoms: _471  and  _472
REMARK  197  A    between atoms: _477  and  _479
REMARK  198  A    between atoms: _479  and  _480
REMARK  199  A    between atoms: _479  and  _482
REMARK  200  A    between atoms: _482  and  _483
REMARK  201  A    between atoms: _486  and  _488
REMARK  202  A    between atoms: _488  and  _489
REMARK  203  A    between atoms: _488  and  _491
REMARK  204  A    between atoms: _491  and  _492
REMARK  205  A    between atoms: _497  and  _499
REMARK  206  A    between atoms: _499  and  _500
REMARK  207  A    between atoms: _499  and  _502
REMARK  208  A    between atoms: _505  and  _507
REMARK  209  A    between atoms: _507  and  _508
REMARK  210  A    between atoms: _507  and  _510
REMARK  211  A    between atoms: _510  and  _511
REMARK  212  A    between atoms: _514  and  _516
REMARK  213  A    between atoms: _516  and  _517
REMARK  214  A    between atoms: _519  and  _521
REMARK  215  A    between atoms: _521  and  _522
REMARK  216  A    between atoms: _521  and  _524
REMARK  217  A    between atoms: _524  and  _525
REMARK  218  A    between atoms: _525  and  _526
REMARK  219  A    between atoms: _526  and  _527
REMARK                            x       y       z     vdW  Elec       q    Type
REMARK                         _______ _______ _______ _____ _____    ______ ____
ROOT
ATOM      1  C   ILE A   3      -8.074   9.653  34.307  0.00  0.00    +0.241 C 
ATOM      2  O   ILE A   3      -6.977   9.141  33.992  0.00  0.00    -0.273 OA
ATOM      3  N   GLY A   4      -9.113   9.717  33.481  0.00  0.00    -0.295 N 
ATOM      4  H   GLY A   4     -10.018  10.108  33.814  0.00  0.00    +0.150 HD
ENDROOT
BRANCH   1   5
ATOM      5  CA  ILE A   3      -8.299  10.218  35.700  0.00  0.00    +0.149 C 
BRANCH   5   8
ATOM      6  C   MET A   2      -7.707   9.119  37.769  0.00  0.00    +0.241 C 
ATOM      7  O   MET A   2      -8.792   9.367  38.294  0.00  0.00    -0.273 OA
ATOM      8  N   ILE A   3      -7.364   9.538  36.562  0.00  0.00    -0.297 N 
ATOM      9  H   ILE A   3      -6.394   9.373  36.226  0.00  0.00    +0.150 HD
BRANCH   6  10
ATOM     10  CA  MET A   2      -6.647   8.348  38.514  0.00  0.00    +0.149 C 
BRANCH  10  13
ATOM     11  C   LYS A   1      -5.796   9.516  40.479  0.00  0.00    +0.238 C 
ATOM     12  O   LYS A   1      -4.724   9.747  39.930  0.00  0.00    -0.274 OA
ATOM     13  N   MET A   2      -6.736   8.758  39.918  0.00  0.00    -0.297 N 
ATOM     14  H   MET A   2      -7.550   8.451  40.488  0.00  0.00    +0.150 HD
BRANCH  11  15
ATOM     15  CA  LYS A   1      -6.074  10.036  41.892  0.00  0.00    +0.145 C 
BRANCH  15  16
ATOM     16  N   LYS A   1      -4.860   9.958  42.694  0.00  0.00    -0.238 NA
ATOM     17  H   LYS A   1      -3.948  10.173  42.243  0.00  0.00    +0.142 HD
ENDBRANCH  15  16
BRANCH  15  18
ATOM     18  CB  LYS A   1      -6.606  11.476  41.893  0.00  0.00    +0.026 C 
BRANCH  18  19
ATOM     19  CG  LYS A   1      -7.817  11.723  41.001  0.00  0.00    -0.000 C 
BRANCH  19  20
ATOM     20  CD  LYS A   1      -8.777  12.750  41.589  0.00  0.00    -0.024 C 
BRANCH  20  21
ATOM     21  CE  LYS A   1      -9.782  13.215  40.540  0.00  0.00    -0.086 C 
BRANCH  21  22
ATOM     22  NZ  LYS A   1     -11.147  13.485  41.096  0.00  0.00    +0.380 N 
ATOM     23  HZ1 LYS A   1     -11.084  14.230  41.819  0.00  0.00    -0.089 HD
ATOM     24  HZ2 LYS A   1     -11.524  12.615  41.524  0.00  0.00    -0.089 HD
ATOM     25  HZ3 LYS A   1     -11.777  13.796  40.329  0.00  0.00    -0.089 HD
ENDBRANCH  21  22
ENDBRANCH  20  21
ENDBRANCH  19  20
ENDBRANCH  18  19
ENDBRANCH  15  18
ENDBRANCH  11  15
ENDBRANCH  10  13
BRANCH  10  26
ATOM     26  CB  MET A   2      -6.896   6.846  38.348  0.00  0.00    +0.041 C 
BRANCH  26  27
ATOM     27  CG  MET A   2      -6.117   6.158  37.217  0.00  0.00    +0.060 C 
BRANCH  27  28
ATOM     28  SD  MET A   2      -5.617   4.452  37.659  0.00  0.00    -0.139 S 
ATOM     29  CE  MET A   2      -4.988   3.837  36.111  0.00  0.00    +0.069 C 
ENDBRANCH  27  28
ENDBRANCH  26  27
ENDBRANCH  10  26
ENDBRANCH   6  10
ENDBRANCH   5   8
BRANCH   5  30
ATOM     30  CB  ILE A   3      -8.159  11.791  35.733  0.00  0.00    +0.027 C 
ATOM     31  CG2 ILE A   3      -8.430  12.365  37.132  0.00  0.00    +0.002 C 
BRANCH  30  32
ATOM     32  CG1 ILE A   3      -6.798  12.269  35.227  0.00  0.00    +0.002 C 
ATOM     33  CD1 ILE A   3      -6.735  13.777  35.013  0.00  0.00    +0.000 C 
ENDBRANCH  30  32
ENDBRANCH   5  30
ENDBRANCH   1   5
BRANCH   3  34
ATOM     34  CA  GLY A   4      -8.989   9.249  32.134  0.00  0.00    +0.176 C 
BRANCH  34  35
ATOM     35  C   GLY A   4      -9.606  10.201  31.146  0.00  0.00    +0.243 C 
ATOM     36  O   GLY A   4     -10.649  10.810  31.409  0.00  0.00    -0.273 OA
ATOM     37  N   GLY A   5      -8.964  10.309  29.991  0.00  0.00    -0.295 N 
ATOM     38  H   GLY A   5      -8.026   9.872  29.886  0.00  0.00    +0.150 HD
BRANCH  37  39
ATOM     39  CA  GLY A   5      -9.543  11.024  28.874  0.00  0.00    +0.176 C 
BRANCH  39  40
ATOM     40  C   GLY A   5      -9.210  10.345  27.576  0.00  0.00    +0.243 C 
ATOM     41  O   GLY A   5      -8.981   9.125  27.536  0.00  0.00    -0.273 OA
ATOM     42  N   ILE A   6      -9.174  11.139  26.511  0.00  0.00    -0.297 N 
ATOM     43  H   ILE A   6      -9.473  12.129  26.621  0.00  0.00    +0.150 HD
BRANCH  42  44
ATOM     44  CA  ILE A   6      -8.733  10.686  25.191  0.00  0.00    +0.149 C 
BRANCH  44  45
ATOM     45  C   ILE A   6      -7.297  10.155  25.160  0.00  0.00    +0.241 C 
ATOM     46  O   ILE A   6      -6.344  10.816  25.611  0.00  0.00    -0.273 OA
ATOM     47  N   GLY A   7      -7.173   8.940  24.626  0.00  0.00    -0.295 N 
ATOM     48  H   GLY A   7      -8.036   8.476  24.278  0.00  0.00    +0.150 HD
BRANCH  47  49
ATOM     49  CA  GLY A   7      -5.922   8.218  24.495  0.00  0.00    +0.176 C 
BRANCH  49  50
ATOM     50  C   GLY A   7      -5.491   7.464  25.745  0.00  0.00    +0.243 C 
ATOM     51  N   GLY A   8      -6.383   7.357  26.730  0.00  0.00    -0.296 N 
ATOM     52  H   GLY A   8      -7.314   7.811  26.634  0.00  0.00    +0.150 HD
ATOM     53  O   GLY A   7      -4.341   6.990  25.818  0.00  0.00    -0.273 OA
BRANCH  51  54
ATOM     54  CA  GLY A   8      -6.064   6.608  27.942  0.00  0.00    +0.163 C 
BRANCH  54  55
ATOM     55  C   GLY A   8      -6.083   7.351  29.274  0.00  0.00    +0.229 C 
ATOM     56  O   GLY A   8      -6.837   8.306  29.472  0.00  0.00    -0.286 OA
ENDBRANCH  54  55
ENDBRANCH  51  54
ENDBRANCH  49  50
ENDBRANCH  47  49
ENDBRANCH  44  45
BRANCH  44  57
ATOM     57  CB  ILE A   6      -8.959  11.768  24.124  0.00  0.00    +0.027 C 
ATOM     58  CG2 ILE A   6      -8.028  11.601  22.918  0.00  0.00    +0.002 C 
BRANCH  57  59
ATOM     59  CG1 ILE A   6     -10.398  11.682  23.644  0.00  0.00    +0.002 C 
ATOM     60  CD1 ILE A   6     -10.814  12.825  22.777  0.00  0.00    +0.000 C 
ENDBRANCH  57  59
ENDBRANCH  44  57
ENDBRANCH  42  44
ENDBRANCH  39  40
ENDBRANCH  37  39
ENDBRANCH  34  35
ENDBRANCH   3  34
TORSDOF 28
REMARK  Name = ../refined-set-2016/3u7s/3u7s_pocket.pdb
REMARK  219 active torsions:
REMARK  status: ('A' for Active; 'I' for Inactive)
REMARK    1  A    between atoms: _1  and  _3
REMARK    2  A    between atoms: _3  and  _4
REMARK    3  A    between atoms: _3  and  _6
REMARK    4  A    between atoms: _6  and  _7
REMARK    5  A    between atoms: _7  and  _8
REMARK    6  A    between atoms: _8  and  _9
REMARK    7  A    between atoms: _18  and  _20
REMARK    8  A    between atoms: _20  and  _21
REMARK    9  A    between atoms: _20  and  _23
REMARK   10  A    between atoms: _23  and  _24
REMARK   11  A    between atoms: _27  and  _29
REMARK   12  A    between atoms: _29  and  _30
REMARK   13  A    between atoms: _29  and  _32
REMARK   14  A    between atoms: _32  and  _33
REMARK   15  A    between atoms: _36  and  _38
REMARK   16  A    between atoms: _38  and  _39
REMARK   17  A    between atoms: _38  and  _41
REMARK   18  A    between atoms: _41  and  _42
REMARK   19  A    between atoms: _45  and  _47
REMARK   20  A    between atoms: _47  and  _48
REMARK   21  A    between atoms: _47  and  _50
REMARK   22  A    between atoms: _50  and  _51
REMARK   23  A    between atoms: _54  and  _56
REMARK   24  A    between atoms: _56  and  _57
REMARK   25  A    between atoms: _59  and  _61
REMARK   26  A    between atoms: _61  and  _62
REMARK   27  A    between atoms: _65  and  _67
REMARK   28  A    between atoms: _67  and  _68
REMARK   29  A    between atoms: _67  and  _70
REMARK   30  A    between atoms: _70  and  _71
REMARK   31  A    between atoms: _74  and  _76
REMARK   32  A    between atoms: _76  and  _77
REMARK   33  A    between atoms: _76  and  _79
REMARK   34  A    between atoms: _79  and  _80
REMARK   35  A    between atoms: _83  and  _85
REMARK   36  A    between atoms: _85  and  _86
REMARK   37  A    between atoms: _85  and  _88
REMARK   38  A    between atoms: _88  and  _89
REMARK   39  A    between atoms: _92  and  _94
REMARK   40  A    between atoms: _94  and  _95
REMARK   41  A    between atoms: _94  and  _97
REMARK   42  A    between atoms: _97  and  _98
REMARK   43  A    between atoms: _101  and  _103
REMARK   44  A    between atoms: _103  and  _104
REMARK   45  A    between atoms: _103  and  _106
REMARK   46  A    between atoms: _106  and  _107
REMARK   47  A    between atoms: _107  and  _108
REMARK   48  A    between atoms: _108  and  _109
REMARK   49  A    between atoms: _109  and  _110
REMARK   50  A    between atoms: _114  and  _116
REMARK   51  A    between atoms: _116  and  _117
REMARK   52  A    between atoms: _116  and  _119
REMARK   53  A    between atoms: _119  and  _120
REMARK   54  A    between atoms: _120  and  _121
REMARK   55  A    between atoms: _125  and  _126
REMARK   56  A    between atoms: _125  and  _128
REMARK   57  A    between atoms: _128  and  _129
REMARK   58  A    between atoms: _132  and  _134
REMARK   59  A    between atoms: _134  and  _135
REMARK   60  A    between atoms: _137  and  _139
REMARK   61  A    between atoms: _139  and  _140
REMARK   62  A    between atoms: _142  and  _144
REMARK   63  A    between atoms: _144  and  _145
REMARK   64  A    between atoms: _144  and  _147
REMARK   65  A    between atoms: _147  and  _148
REMARK   66  A    between atoms: _151  and  _153
REMARK   67  A    between atoms: _153  and  _154
REMARK   68  A    between atoms: _156  and  _158
REMARK   69  A    between atoms: _158  and  _159
REMARK   70  A    between atoms: _161  and  _163
REMARK   71  A    between atoms: _163  and  _164
REMARK   72  A    between atoms: _163  and  _166
REMARK   73  A    between atoms: _166  and  _167
REMARK   74  A    between atoms: _173  and  _175
REMARK   75  A    between atoms: _175  and  _176
REMARK   76  A    between atoms: _175  and  _178
REMARK   77  A    between atoms: _178  and  _179
REMARK   78  A    between atoms: _182  and  _184
REMARK   79  A    between atoms: _184  and  _185
REMARK   80  A    between atoms: _184  and  _187
REMARK   81  A    between atoms: _187  and  _188
REMARK   82  A    between atoms: _192  and  _193
REMARK   83  A    between atoms: _198  and  _200
REMARK   84  A    between atoms: _200  and  _201
REMARK   85  A    between atoms: _200  and  _203
REMARK   86  A    between atoms: _203  and  _204
REMARK   87  A    between atoms: _207  and  _209
REMARK   88  A    between atoms: _209  and  _210
REMARK   89  A    between atoms: _209  and  _212
REMARK   90  A    between atoms: _212  and  _213
REMARK   91  A    between atoms: _218  and  _220
REMARK   92  A    between atoms: _220  and  _221
REMARK   93  A    between atoms: _220  and  _223
REMARK   94  A    between atoms: _226  and  _228
REMARK   95  A    between atoms: _228  and  _229
REMARK   96  A    between atoms: _228  and  _231
REMARK   97  A    between atoms: _231  and  _232
REMARK   98  A    between atoms: _235  and  _237
REMARK   99  A    between atoms: _237  and  _238
REMARK  100  A    between atoms: _240  and  _242
REMARK  101  A    between atoms: _242  and  _243
REMARK  102  A    between atoms: _242  and  _245
REMARK  103  A    between atoms: _245  and  _246
REMARK  104  A    between atoms: _246  and  _247
REMARK  105  A    between atoms: _247  and  _248
REMARK  106  A    between atoms: _257  and  _259
REMARK  107  A    between atoms: _259  and  _260
REMARK  108  A    between atoms: _259  and  _262
REMARK  109  A    between atoms: _262  and  _263
REMARK  110  A    between atoms: _268  and  _270
REMARK  111  A    between atoms: _270  and  _271
REMARK  112  A    between atoms: _270  and  _273
REMARK  113  A    between atoms: _273  and  _274
REMARK  114  A    between atoms: _274  and  _275
REMARK  115  A    between atoms: _275  and  _276
REMARK  116  A    between atoms: _285  and  _287
REMARK  117  A    between atoms: _287  and  _288
REMARK  118  A    between atoms: _287  and  _290
REMARK  119  A    between atoms: _290  and  _291
REMARK  120  A    between atoms: _294  and  _296
REMARK  121  A    between atoms: _296  and  _297
REMARK  122  A    between atoms: _296  and  _299
REMARK  123  A    between atoms: _299  and  _300
REMARK  124  A    between atoms: _303  and  _305
REMARK  125  A    between atoms: _305  and  _306
REMARK  126  A    between atoms: _305  and  _308
REMARK  127  A    between atoms: _308  and  _309
REMARK  128  A    between atoms: _312  and  _314
REMARK  129  A    between atoms: _314  and  _315
REMARK  130  A    between atoms: _314  and  _317
REMARK  131  A    between atoms: _317  and  _318
REMARK  132  A    between atoms: _321  and  _323
REMARK  133  A    between atoms: _323  and  _324
REMARK  134  A    between atoms: _326  and  _328
REMARK  135  A    between atoms: _328  and  _329
REMARK  136  A    between atoms: _332  and  _334
REMARK  137  A    between atoms: _334  and  _335
REMARK  138  A    between atoms: _334  and  _337
REMARK  139  A    between atoms: _337  and  _338
REMARK  140  A    between atoms: _341  and  _343
REMARK  141  A    between atoms: _343  and  _344
REMARK  142  A    between atoms: _343  and  _346
REMARK  143  A    between atoms: _346  and  _347
REMARK  144  A    between atoms: _350  and  _352
REMARK  145  A    between atoms: _352  and  _353
REMARK  146  A    between atoms: _352  and  _355
REMARK  147  A    between atoms: _355  and  _356
REMARK  148  A    between atoms: _359  and  _361
REMARK  149  A    between atoms: _361  and  _362
REMARK  150  A    between atoms: _361  and  _364
REMARK  151  A    between atoms: _364  and  _365
REMARK  152  A    between atoms: _368  and  _370
REMARK  153  A    between atoms: _370  and  _371
REMARK  154  A    between atoms: _370  and  _373
REMARK  155  A    between atoms: _373  and  _374
REMARK  156  A    between atoms: _374  and  _375
REMARK  157  A    between atoms: _375  and  _376
REMARK  158  A    between atoms: _376  and  _377
REMARK  159  A    between atoms: _381  and  _383
REMARK  160  A    between atoms: _383  and  _384
REMARK  161  A    between atoms: _383  and  _386
REMARK  162  A    between atoms: _386  and  _387
REMARK  163  A    between atoms: _387  and  _388
REMARK  164  A    between atoms: _390  and  _392
REMARK  165  A    between atoms: _392  and  _393
REMARK  166  A    between atoms: _392  and  _395
REMARK  167  A    between atoms: _395  and  _396
REMARK  168  A    between atoms: _399  and  _401
REMARK  169  A    between atoms: _401  and  _402
REMARK  170  A    between atoms: _404  and  _406
REMARK  171  A    between atoms: _406  and  _407
REMARK  172  A    between atoms: _409  and  _411
REMARK  173  A    between atoms: _411  and  _412
REMARK  174  A    between atoms: _411  and  _414
REMARK  175  A    between atoms: _414  and  _415
REMARK  176  A    between atoms: _418  and  _420
REMARK  177  A    between atoms: _420  and  _421
REMARK  178  A    between atoms: _423  and  _425
REMARK  179  A    between atoms: _425  and  _426
REMARK  180  A    between atoms: _428  and  _430
REMARK  181  A    between atoms: _430  and  _431
REMARK  182  A    between atoms: _430  and  _433
REMARK  183  A    between atoms: _433  and  _434
REMARK  184  A    between atoms: _437  and  _439
REMARK  185  A    between atoms: _439  and  _440
REMARK  186  A    between atoms: _439  and  _442
REMARK  187  A    between atoms: _445  and  _447
REMARK  188  A    between atoms: _447  and  _448
REMARK  189  A    between atoms: _447  and  _450
REMARK  190  A    between atoms: _450  and  _451
REMARK  191  A    between atoms: _455  and  _456
REMARK  192  A    between atoms: _461  and  _463
REMARK  193  A    between atoms: _463  and  _464
REMARK  194  A    between atoms: _463  and  _466
REMARK  195  A    between atoms: _466  and  _467
REMARK  196  A    between atoms: _471  and  _472
REMARK  197  A    between atoms: _477  and  _479
REMARK  198  A    between atoms: _479  and  _480
REMARK  199  A    between atoms: _479  and  _482
REMARK  200  A    between atoms: _482  and  _483
REMARK  201  A    between atoms: _486  and  _488
REMARK  202  A    between atoms: _488  and  _489
REMARK  203  A    between atoms: _488  and  _491
REMARK  204  A    between atoms: _491  and  _492
REMARK  205  A    between atoms: _497  and  _499
REMARK  206  A    between atoms: _499  and  _500
REMARK  207  A    between atoms: _499  and  _502
REMARK  208  A    between atoms: _505  and  _507
REMARK  209  A    between atoms: _507  and  _508
REMARK  210  A    between atoms: _507  and  _510
REMARK  211  A    between atoms: _510  and  _511
REMARK  212  A    between atoms: _514  and  _516
REMARK  213  A    between atoms: _516  and  _517
REMARK  214  A    between atoms: _519  and  _521
REMARK  215  A    between atoms: _521  and  _522
REMARK  216  A    between atoms: _521  and  _524
REMARK  217  A    between atoms: _524  and  _525
REMARK  218  A    between atoms: _525  and  _526
REMARK  219  A    between atoms: _526  and  _527
REMARK                            x       y       z     vdW  Elec       q    Type
REMARK                         _______ _______ _______ _____ _____    ______ ____
ROOT
ATOM      1  CA  LEU A   1      -2.814   8.735  34.094  0.00  0.00    +0.133 C 
ENDROOT
BRANCH   1   2
ATOM      2  N   LEU A   1      -4.012   8.404  33.305  0.00  0.00    -0.239 NA
ATOM      3  H   LEU A   1      -4.909   8.871  33.549  0.00  0.00    +0.142 HD
ENDBRANCH   1   2
BRANCH   1   4
ATOM      4  C   LEU A   1      -3.022   8.590  35.606  0.00  0.00    +0.224 C 
ATOM      5  O   LEU A   1      -4.153   8.649  36.114  0.00  0.00    -0.287 OA
ENDBRANCH   1   4
BRANCH   1   6
ATOM      6  CB  LEU A   1      -2.357  10.173  33.807  0.00  0.00    +0.025 C 
BRANCH   6   7
ATOM      7  CG  LEU A   1      -2.578  10.737  32.394  0.00  0.00    +0.002 C 
ATOM      8  CD2 LEU A   1      -2.893  12.216  32.485  0.00  0.00    +0.000 C 
ATOM      9  CD1 LEU A   1      -1.380  10.460  31.449  0.00  0.00    +0.000 C 
ENDBRANCH   6   7
ENDBRANCH   1   6
TORSDOF 4
REMARK  Name = ../refined-set-2016/3u7s/3u7s_pocket.pdb
REMARK  219 active torsions:
REMARK  status: ('A' for Active; 'I' for Inactive)
REMARK    1  A    between atoms: _1  and  _3
REMARK    2  A    between atoms: _3  and  _4
REMARK    3  A    between atoms: _3  and  _6
REMARK    4  A    between atoms: _6  and  _7
REMARK    5  A    between atoms: _7  and  _8
REMARK    6  A    between atoms: _8  and  _9
REMARK    7  A    between atoms: _18  and  _20
REMARK    8  A    between atoms: _20  and  _21
REMARK    9  A    between atoms: _20  and  _23
REMARK   10  A    between atoms: _23  and  _24
REMARK   11  A    between atoms: _27  and  _29
REMARK   12  A    between atoms: _29  and  _30
REMARK   13  A    between atoms: _29  and  _32
REMARK   14  A    between atoms: _32  and  _33
REMARK   15  A    between atoms: _36  and  _38
REMARK   16  A    between atoms: _38  and  _39
REMARK   17  A    between atoms: _38  and  _41
REMARK   18  A    between atoms: _41  and  _42
REMARK   19  A    between atoms: _45  and  _47
REMARK   20  A    between atoms: _47  and  _48
REMARK   21  A    between atoms: _47  and  _50
REMARK   22  A    between atoms: _50  and  _51
REMARK   23  A    between atoms: _54  and  _56
REMARK   24  A    between atoms: _56  and  _57
REMARK   25  A    between atoms: _59  and  _61
REMARK   26  A    between atoms: _61  and  _62
REMARK   27  A    between atoms: _65  and  _67
REMARK   28  A    between atoms: _67  and  _68
REMARK   29  A    between atoms: _67  and  _70
REMARK   30  A    between atoms: _70  and  _71
REMARK   31  A    between atoms: _74  and  _76
REMARK   32  A    between atoms: _76  and  _77
REMARK   33  A    between atoms: _76  and  _79
REMARK   34  A    between atoms: _79  and  _80
REMARK   35  A    between atoms: _83  and  _85
REMARK   36  A    between atoms: _85  and  _86
REMARK   37  A    between atoms: _85  and  _88
REMARK   38  A    between atoms: _88  and  _89
REMARK   39  A    between atoms: _92  and  _94
REMARK   40  A    between atoms: _94  and  _95
REMARK   41  A    between atoms: _94  and  _97
REMARK   42  A    between atoms: _97  and  _98
REMARK   43  A    between atoms: _101  and  _103
REMARK   44  A    between atoms: _103  and  _104
REMARK   45  A    between atoms: _103  and  _106
REMARK   46  A    between atoms: _106  and  _107
REMARK   47  A    between atoms: _107  and  _108
REMARK   48  A    between atoms: _108  and  _109
REMARK   49  A    between atoms: _109  and  _110
REMARK   50  A    between atoms: _114  and  _116
REMARK   51  A    between atoms: _116  and  _117
REMARK   52  A    between atoms: _116  and  _119
REMARK   53  A    between atoms: _119  and  _120
REMARK   54  A    between atoms: _120  and  _121
REMARK   55  A    between atoms: _125  and  _126
REMARK   56  A    between atoms: _125  and  _128
REMARK   57  A    between atoms: _128  and  _129
REMARK   58  A    between atoms: _132  and  _134
REMARK   59  A    between atoms: _134  and  _135
REMARK   60  A    between atoms: _137  and  _139
REMARK   61  A    between atoms: _139  and  _140
REMARK   62  A    between atoms: _142  and  _144
REMARK   63  A    between atoms: _144  and  _145
REMARK   64  A    between atoms: _144  and  _147
REMARK   65  A    between atoms: _147  and  _148
REMARK   66  A    between atoms: _151  and  _153
REMARK   67  A    between atoms: _153  and  _154
REMARK   68  A    between atoms: _156  and  _158
REMARK   69  A    between atoms: _158  and  _159
REMARK   70  A    between atoms: _161  and  _163
REMARK   71  A    between atoms: _163  and  _164
REMARK   72  A    between atoms: _163  and  _166
REMARK   73  A    between atoms: _166  and  _167
REMARK   74  A    between atoms: _173  and  _175
REMARK   75  A    between atoms: _175  and  _176
REMARK   76  A    between atoms: _175  and  _178
REMARK   77  A    between atoms: _178  and  _179
REMARK   78  A    between atoms: _182  and  _184
REMARK   79  A    between atoms: _184  and  _185
REMARK   80  A    between atoms: _184  and  _187
REMARK   81  A    between atoms: _187  and  _188
REMARK   82  A    between atoms: _192  and  _193
REMARK   83  A    between atoms: _198  and  _200
REMARK   84  A    between atoms: _200  and  _201
REMARK   85  A    between atoms: _200  and  _203
REMARK   86  A    between atoms: _203  and  _204
REMARK   87  A    between atoms: _207  and  _209
REMARK   88  A    between atoms: _209  and  _210
REMARK   89  A    between atoms: _209  and  _212
REMARK   90  A    between atoms: _212  and  _213
REMARK   91  A    between atoms: _218  and  _220
REMARK   92  A    between atoms: _220  and  _221
REMARK   93  A    between atoms: _220  and  _223
REMARK   94  A    between atoms: _226  and  _228
REMARK   95  A    between atoms: _228  and  _229
REMARK   96  A    between atoms: _228  and  _231
REMARK   97  A    between atoms: _231  and  _232
REMARK   98  A    between atoms: _235  and  _237
REMARK   99  A    between atoms: _237  and  _238
REMARK  100  A    between atoms: _240  and  _242
REMARK  101  A    between atoms: _242  and  _243
REMARK  102  A    between atoms: _242  and  _245
REMARK  103  A    between atoms: _245  and  _246
REMARK  104  A    between atoms: _246  and  _247
REMARK  105  A    between atoms: _247  and  _248
REMARK  106  A    between atoms: _257  and  _259
REMARK  107  A    between atoms: _259  and  _260
REMARK  108  A    between atoms: _259  and  _262
REMARK  109  A    between atoms: _262  and  _263
REMARK  110  A    between atoms: _268  and  _270
REMARK  111  A    between atoms: _270  and  _271
REMARK  112  A    between atoms: _270  and  _273
REMARK  113  A    between atoms: _273  and  _274
REMARK  114  A    between atoms: _274  and  _275
REMARK  115  A    between atoms: _275  and  _276
REMARK  116  A    between atoms: _285  and  _287
REMARK  117  A    between atoms: _287  and  _288
REMARK  118  A    between atoms: _287  and  _290
REMARK  119  A    between atoms: _290  and  _291
REMARK  120  A    between atoms: _294  and  _296
REMARK  121  A    between atoms: _296  and  _297
REMARK  122  A    between atoms: _296  and  _299
REMARK  123  A    between atoms: _299  and  _300
REMARK  124  A    between atoms: _303  and  _305
REMARK  125  A    between atoms: _305  and  _306
REMARK  126  A    between atoms: _305  and  _308
REMARK  127  A    between atoms: _308  and  _309
REMARK  128  A    between atoms: _312  and  _314
REMARK  129  A    between atoms: _314  and  _315
REMARK  130  A    between atoms: _314  and  _317
REMARK  131  A    between atoms: _317  and  _318
REMARK  132  A    between atoms: _321  and  _323
REMARK  133  A    between atoms: _323  and  _324
REMARK  134  A    between atoms: _326  and  _328
REMARK  135  A    between atoms: _328  and  _329
REMARK  136  A    between atoms: _332  and  _334
REMARK  137  A    between atoms: _334  and  _335
REMARK  138  A    between atoms: _334  and  _337
REMARK  139  A    between atoms: _337  and  _338
REMARK  140  A    between atoms: _341  and  _343
REMARK  141  A    between atoms: _343  and  _344
REMARK  142  A    between atoms: _343  and  _346
REMARK  143  A    between atoms: _346  and  _347
REMARK  144  A    between atoms: _350  and  _352
REMARK  145  A    between atoms: _352  and  _353
REMARK  146  A    between atoms: _352  and  _355
REMARK  147  A    between atoms: _355  and  _356
REMARK  148  A    between atoms: _359  and  _361
REMARK  149  A    between atoms: _361  and  _362
REMARK  150  A    between atoms: _361  and  _364
REMARK  151  A    between atoms: _364  and  _365
REMARK  152  A    between atoms: _368  and  _370
REMARK  153  A    between atoms: _370  and  _371
REMARK  154  A    between atoms: _370  and  _373
REMARK  155  A    between atoms: _373  and  _374
REMARK  156  A    between atoms: _374  and  _375
REMARK  157  A    between atoms: _375  and  _376
REMARK  158  A    between atoms: _376  and  _377
REMARK  159  A    between atoms: _381  and  _383
REMARK  160  A    between atoms: _383  and  _384
REMARK  161  A    between atoms: _383  and  _386
REMARK  162  A    between atoms: _386  and  _387
REMARK  163  A    between atoms: _387  and  _388
REMARK  164  A    between atoms: _390  and  _392
REMARK  165  A    between atoms: _392  and  _393
REMARK  166  A    between atoms: _392  and  _395
REMARK  167  A    between atoms: _395  and  _396
REMARK  168  A    between atoms: _399  and  _401
REMARK  169  A    between atoms: _401  and  _402
REMARK  170  A    between atoms: _404  and  _406
REMARK  171  A    between atoms: _406  and  _407
REMARK  172  A    between atoms: _409  and  _411
REMARK  173  A    between atoms: _411  and  _412
REMARK  174  A    between atoms: _411  and  _414
REMARK  175  A    between atoms: _414  and  _415
REMARK  176  A    between atoms: _418  and  _420
REMARK  177  A    between atoms: _420  and  _421
REMARK  178  A    between atoms: _423  and  _425
REMARK  179  A    between atoms: _425  and  _426
REMARK  180  A    between atoms: _428  and  _430
REMARK  181  A    between atoms: _430  and  _431
REMARK  182  A    between atoms: _430  and  _433
REMARK  183  A    between atoms: _433  and  _434
REMARK  184  A    between atoms: _437  and  _439
REMARK  185  A    between atoms: _439  and  _440
REMARK  186  A    between atoms: _439  and  _442
REMARK  187  A    between atoms: _445  and  _447
REMARK  188  A    between atoms: _447  and  _448
REMARK  189  A    between atoms: _447  and  _450
REMARK  190  A    between atoms: _450  and  _451
REMARK  191  A    between atoms: _455  and  _456
REMARK  192  A    between atoms: _461  and  _463
REMARK  193  A    between atoms: _463  and  _464
REMARK  194  A    between atoms: _463  and  _466
REMARK  195  A    between atoms: _466  and  _467
REMARK  196  A    between atoms: _471  and  _472
REMARK  197  A    between atoms: _477  and  _479
REMARK  198  A    between atoms: _479  and  _480
REMARK  199  A    between atoms: _479  and  _482
REMARK  200  A    between atoms: _482  and  _483
REMARK  201  A    between atoms: _486  and  _488
REMARK  202  A    between atoms: _488  and  _489
REMARK  203  A    between atoms: _488  and  _491
REMARK  204  A    between atoms: _491  and  _492
REMARK  205  A    between atoms: _497  and  _499
REMARK  206  A    between atoms: _499  and  _500
REMARK  207  A    between atoms: _499  and  _502
REMARK  208  A    between atoms: _505  and  _507
REMARK  209  A    between atoms: _507  and  _508
REMARK  210  A    between atoms: _507  and  _510
REMARK  211  A    between atoms: _510  and  _511
REMARK  212  A    between atoms: _514  and  _516
REMARK  213  A    between atoms: _516  and  _517
REMARK  214  A    between atoms: _519  and  _521
REMARK  215  A    between atoms: _521  and  _522
REMARK  216  A    between atoms: _521  and  _524
REMARK  217  A    between atoms: _524  and  _525
REMARK  218  A    between atoms: _525  and  _526
REMARK  219  A    between atoms: _526  and  _527
REMARK                            x       y       z     vdW  Elec       q    Type
REMARK                         _______ _______ _______ _____ _____    ______ ____
ROOT
ATOM      1  CA  VAL A   1      -2.121  11.973  39.257  0.00  0.00    +0.133 C 
ENDROOT
BRANCH   1   2
ATOM      2  CB  VAL A   1      -3.149  12.935  38.540  0.00  0.00    +0.023 C 
ATOM      3  CG2 VAL A   1      -4.539  12.866  39.168  0.00  0.00    +0.002 C 
ATOM      4  CG1 VAL A   1      -3.231  12.634  37.044  0.00  0.00    +0.002 C 
ENDBRANCH   1   2
BRANCH   1   5
ATOM      5  N   VAL A   1      -2.349  10.591  38.918  0.00  0.00    -0.239 NA
ATOM      6  H   VAL A   1      -3.201  10.110  39.271  0.00  0.00    +0.142 HD
ENDBRANCH   1   5
BRANCH   1   7
ATOM      7  C   VAL A   1      -2.152  12.125  40.761  0.00  0.00    +0.224 C 
ATOM      8  O   VAL A   1      -2.660  11.254  41.476  0.00  0.00    -0.287 OA
ENDBRANCH   1   7
TORSDOF 3
REMARK  Name = ../refined-set-2016/3u7s/3u7s_pocket.pdb
REMARK  219 active torsions:
REMARK  status: ('A' for Active; 'I' for Inactive)
REMARK    1  A    between atoms: _1  and  _3
REMARK    2  A    between atoms: _3  and  _4
REMARK    3  A    between atoms: _3  and  _6
REMARK    4  A    between atoms: _6  and  _7
REMARK    5  A    between atoms: _7  and  _8
REMARK    6  A    between atoms: _8  and  _9
REMARK    7  A    between atoms: _18  and  _20
REMARK    8  A    between atoms: _20  and  _21
REMARK    9  A    between atoms: _20  and  _23
REMARK   10  A    between atoms: _23  and  _24
REMARK   11  A    between atoms: _27  and  _29
REMARK   12  A    between atoms: _29  and  _30
REMARK   13  A    between atoms: _29  and  _32
REMARK   14  A    between atoms: _32  and  _33
REMARK   15  A    between atoms: _36  and  _38
REMARK   16  A    between atoms: _38  and  _39
REMARK   17  A    between atoms: _38  and  _41
REMARK   18  A    between atoms: _41  and  _42
REMARK   19  A    between atoms: _45  and  _47
REMARK   20  A    between atoms: _47  and  _48
REMARK   21  A    between atoms: _47  and  _50
REMARK   22  A    between atoms: _50  and  _51
REMARK   23  A    between atoms: _54  and  _56
REMARK   24  A    between atoms: _56  and  _57
REMARK   25  A    between atoms: _59  and  _61
REMARK   26  A    between atoms: _61  and  _62
REMARK   27  A    between atoms: _65  and  _67
REMARK   28  A    between atoms: _67  and  _68
REMARK   29  A    between atoms: _67  and  _70
REMARK   30  A    between atoms: _70  and  _71
REMARK   31  A    between atoms: _74  and  _76
REMARK   32  A    between atoms: _76  and  _77
REMARK   33  A    between atoms: _76  and  _79
REMARK   34  A    between atoms: _79  and  _80
REMARK   35  A    between atoms: _83  and  _85
REMARK   36  A    between atoms: _85  and  _86
REMARK   37  A    between atoms: _85  and  _88
REMARK   38  A    between atoms: _88  and  _89
REMARK   39  A    between atoms: _92  and  _94
REMARK   40  A    between atoms: _94  and  _95
REMARK   41  A    between atoms: _94  and  _97
REMARK   42  A    between atoms: _97  and  _98
REMARK   43  A    between atoms: _101  and  _103
REMARK   44  A    between atoms: _103  and  _104
REMARK   45  A    between atoms: _103  and  _106
REMARK   46  A    between atoms: _106  and  _107
REMARK   47  A    between atoms: _107  and  _108
REMARK   48  A    between atoms: _108  and  _109
REMARK   49  A    between atoms: _109  and  _110
REMARK   50  A    between atoms: _114  and  _116
REMARK   51  A    between atoms: _116  and  _117
REMARK   52  A    between atoms: _116  and  _119
REMARK   53  A    between atoms: _119  and  _120
REMARK   54  A    between atoms: _120  and  _121
REMARK   55  A    between atoms: _125  and  _126
REMARK   56  A    between atoms: _125  and  _128
REMARK   57  A    between atoms: _128  and  _129
REMARK   58  A    between atoms: _132  and  _134
REMARK   59  A    between atoms: _134  and  _135
REMARK   60  A    between atoms: _137  and  _139
REMARK   61  A    between atoms: _139  and  _140
REMARK   62  A    between atoms: _142  and  _144
REMARK   63  A    between atoms: _144  and  _145
REMARK   64  A    between atoms: _144  and  _147
REMARK   65  A    between atoms: _147  and  _148
REMARK   66  A    between atoms: _151  and  _153
REMARK   67  A    between atoms: _153  and  _154
REMARK   68  A    between atoms: _156  and  _158
REMARK   69  A    between atoms: _158  and  _159
REMARK   70  A    between atoms: _161  and  _163
REMARK   71  A    between atoms: _163  and  _164
REMARK   72  A    between atoms: _163  and  _166
REMARK   73  A    between atoms: _166  and  _167
REMARK   74  A    between atoms: _173  and  _175
REMARK   75  A    between atoms: _175  and  _176
REMARK   76  A    between atoms: _175  and  _178
REMARK   77  A    between atoms: _178  and  _179
REMARK   78  A    between atoms: _182  and  _184
REMARK   79  A    between atoms: _184  and  _185
REMARK   80  A    between atoms: _184  and  _187
REMARK   81  A    between atoms: _187  and  _188
REMARK   82  A    between atoms: _192  and  _193
REMARK   83  A    between atoms: _198  and  _200
REMARK   84  A    between atoms: _200  and  _201
REMARK   85  A    between atoms: _200  and  _203
REMARK   86  A    between atoms: _203  and  _204
REMARK   87  A    between atoms: _207  and  _209
REMARK   88  A    between atoms: _209  and  _210
REMARK   89  A    between atoms: _209  and  _212
REMARK   90  A    between atoms: _212  and  _213
REMARK   91  A    between atoms: _218  and  _220
REMARK   92  A    between atoms: _220  and  _221
REMARK   93  A    between atoms: _220  and  _223
REMARK   94  A    between atoms: _226  and  _228
REMARK   95  A    between atoms: _228  and  _229
REMARK   96  A    between atoms: _228  and  _231
REMARK   97  A    between atoms: _231  and  _232
REMARK   98  A    between atoms: _235  and  _237
REMARK   99  A    between atoms: _237  and  _238
REMARK  100  A    between atoms: _240  and  _242
REMARK  101  A    between atoms: _242  and  _243
REMARK  102  A    between atoms: _242  and  _245
REMARK  103  A    between atoms: _245  and  _246
REMARK  104  A    between atoms: _246  and  _247
REMARK  105  A    between atoms: _247  and  _248
REMARK  106  A    between atoms: _257  and  _259
REMARK  107  A    between atoms: _259  and  _260
REMARK  108  A    between atoms: _259  and  _262
REMARK  109  A    between atoms: _262  and  _263
REMARK  110  A    between atoms: _268  and  _270
REMARK  111  A    between atoms: _270  and  _271
REMARK  112  A    between atoms: _270  and  _273
REMARK  113  A    between atoms: _273  and  _274
REMARK  114  A    between atoms: _274  and  _275
REMARK  115  A    between atoms: _275  and  _276
REMARK  116  A    between atoms: _285  and  _287
REMARK  117  A    between atoms: _287  and  _288
REMARK  118  A    between atoms: _287  and  _290
REMARK  119  A    between atoms: _290  and  _291
REMARK  120  A    between atoms: _294  and  _296
REMARK  121  A    between atoms: _296  and  _297
REMARK  122  A    between atoms: _296  and  _299
REMARK  123  A    between atoms: _299  and  _300
REMARK  124  A    between atoms: _303  and  _305
REMARK  125  A    between atoms: _305  and  _306
REMARK  126  A    between atoms: _305  and  _308
REMARK  127  A    between atoms: _308  and  _309
REMARK  128  A    between atoms: _312  and  _314
REMARK  129  A    between atoms: _314  and  _315
REMARK  130  A    between atoms: _314  and  _317
REMARK  131  A    between atoms: _317  and  _318
REMARK  132  A    between atoms: _321  and  _323
REMARK  133  A    between atoms: _323  and  _324
REMARK  134  A    between atoms: _326  and  _328
REMARK  135  A    between atoms: _328  and  _329
REMARK  136  A    between atoms: _332  and  _334
REMARK  137  A    between atoms: _334  and  _335
REMARK  138  A    between atoms: _334  and  _337
REMARK  139  A    between atoms: _337  and  _338
REMARK  140  A    between atoms: _341  and  _343
REMARK  141  A    between atoms: _343  and  _344
REMARK  142  A    between atoms: _343  and  _346
REMARK  143  A    between atoms: _346  and  _347
REMARK  144  A    between atoms: _350  and  _352
REMARK  145  A    between atoms: _352  and  _353
REMARK  146  A    between atoms: _352  and  _355
REMARK  147  A    between atoms: _355  and  _356
REMARK  148  A    between atoms: _359  and  _361
REMARK  149  A    between atoms: _361  and  _362
REMARK  150  A    between atoms: _361  and  _364
REMARK  151  A    between atoms: _364  and  _365
REMARK  152  A    between atoms: _368  and  _370
REMARK  153  A    between atoms: _370  and  _371
REMARK  154  A    between atoms: _370  and  _373
REMARK  155  A    between atoms: _373  and  _374
REMARK  156  A    between atoms: _374  and  _375
REMARK  157  A    between atoms: _375  and  _376
REMARK  158  A    between atoms: _376  and  _377
REMARK  159  A    between atoms: _381  and  _383
REMARK  160  A    between atoms: _383  and  _384
REMARK  161  A    between atoms: _383  and  _386
REMARK  162  A    between atoms: _386  and  _387
REMARK  163  A    between atoms: _387  and  _388
REMARK  164  A    between atoms: _390  and  _392
REMARK  165  A    between atoms: _392  and  _393
REMARK  166  A    between atoms: _392  and  _395
REMARK  167  A    between atoms: _395  and  _396
REMARK  168  A    between atoms: _399  and  _401
REMARK  169  A    between atoms: _401  and  _402
REMARK  170  A    between atoms: _404  and  _406
REMARK  171  A    between atoms: _406  and  _407
REMARK  172  A    between atoms: _409  and  _411
REMARK  173  A    between atoms: _411  and  _412
REMARK  174  A    between atoms: _411  and  _414
REMARK  175  A    between atoms: _414  and  _415
REMARK  176  A    between atoms: _418  and  _420
REMARK  177  A    between atoms: _420  and  _421
REMARK  178  A    between atoms: _423  and  _425
REMARK  179  A    between atoms: _425  and  _426
REMARK  180  A    between atoms: _428  and  _430
REMARK  181  A    between atoms: _430  and  _431
REMARK  182  A    between atoms: _430  and  _433
REMARK  183  A    between atoms: _433  and  _434
REMARK  184  A    between atoms: _437  and  _439
REMARK  185  A    between atoms: _439  and  _440
REMARK  186  A    between atoms: _439  and  _442
REMARK  187  A    between atoms: _445  and  _447
REMARK  188  A    between atoms: _447  and  _448
REMARK  189  A    between atoms: _447  and  _450
REMARK  190  A    between atoms: _450  and  _451
REMARK  191  A    between atoms: _455  and  _456
REMARK  192  A    between atoms: _461  and  _463
REMARK  193  A    between atoms: _463  and  _464
REMARK  194  A    between atoms: _463  and  _466
REMARK  195  A    between atoms: _466  and  _467
REMARK  196  A    between atoms: _471  and  _472
REMARK  197  A    between atoms: _477  and  _479
REMARK  198  A    between atoms: _479  and  _480
REMARK  199  A    between atoms: _479  and  _482
REMARK  200  A    between atoms: _482  and  _483
REMARK  201  A    between atoms: _486  and  _488
REMARK  202  A    between atoms: _488  and  _489
REMARK  203  A    between atoms: _488  and  _491
REMARK  204  A    between atoms: _491  and  _492
REMARK  205  A    between atoms: _497  and  _499
REMARK  206  A    between atoms: _499  and  _500
REMARK  207  A    between atoms: _499  and  _502
REMARK  208  A    between atoms: _505  and  _507
REMARK  209  A    between atoms: _507  and  _508
REMARK  210  A    between atoms: _507  and  _510
REMARK  211  A    between atoms: _510  and  _511
REMARK  212  A    between atoms: _514  and  _516
REMARK  213  A    between atoms: _516  and  _517
REMARK  214  A    between atoms: _519  and  _521
REMARK  215  A    between atoms: _521  and  _522
REMARK  216  A    between atoms: _521  and  _524
REMARK  217  A    between atoms: _524  and  _525
REMARK  218  A    between atoms: _525  and  _526
REMARK  219  A    between atoms: _526  and  _527
REMARK                            x       y       z     vdW  Elec       q    Type
REMARK                         _______ _______ _______ _____ _____    ______ ____
ROOT
ATOM      1  CA  LEU A   1      -4.050  17.651  40.096  0.00  0.00    +0.133 C 
ENDROOT
BRANCH   1   2
ATOM      2  N   LEU A   1      -4.682  18.940  40.377  0.00  0.00    -0.239 NA
ATOM      3  H   LEU A   1      -5.280  19.364  39.639  0.00  0.00    +0.142 HD
ENDBRANCH   1   2
BRANCH   1   4
ATOM      4  C   LEU A   1      -2.711  17.864  39.415  0.00  0.00    +0.224 C 
ATOM      5  O   LEU A   1      -2.589  18.692  38.540  0.00  0.00    -0.287 OA
ENDBRANCH   1   4
BRANCH   1   6
ATOM      6  CB  LEU A   1      -4.973  16.795  39.215  0.00  0.00    +0.025 C 
BRANCH   6   7
ATOM      7  CG  LEU A   1      -6.415  16.663  39.712  0.00  0.00    +0.002 C 
ATOM      8  CD2 LEU A   1      -6.431  16.031  41.087  0.00  0.00    +0.000 C 
ATOM      9  CD1 LEU A   1      -7.239  15.857  38.699  0.00  0.00    +0.000 C 
ENDBRANCH   6   7
ENDBRANCH   1   6
TORSDOF 4
REMARK  Name = ../refined-set-2016/3u7s/3u7s_pocket.pdb
REMARK  219 active torsions:
REMARK  status: ('A' for Active; 'I' for Inactive)
REMARK    1  A    between atoms: _1  and  _3
REMARK    2  A    between atoms: _3  and  _4
REMARK    3  A    between atoms: _3  and  _6
REMARK    4  A    between atoms: _6  and  _7
REMARK    5  A    between atoms: _7  and  _8
REMARK    6  A    between atoms: _8  and  _9
REMARK    7  A    between atoms: _18  and  _20
REMARK    8  A    between atoms: _20  and  _21
REMARK    9  A    between atoms: _20  and  _23
REMARK   10  A    between atoms: _23  and  _24
REMARK   11  A    between atoms: _27  and  _29
REMARK   12  A    between atoms: _29  and  _30
REMARK   13  A    between atoms: _29  and  _32
REMARK   14  A    between atoms: _32  and  _33
REMARK   15  A    between atoms: _36  and  _38
REMARK   16  A    between atoms: _38  and  _39
REMARK   17  A    between atoms: _38  and  _41
REMARK   18  A    between atoms: _41  and  _42
REMARK   19  A    between atoms: _45  and  _47
REMARK   20  A    between atoms: _47  and  _48
REMARK   21  A    between atoms: _47  and  _50
REMARK   22  A    between atoms: _50  and  _51
REMARK   23  A    between atoms: _54  and  _56
REMARK   24  A    between atoms: _56  and  _57
REMARK   25  A    between atoms: _59  and  _61
REMARK   26  A    between atoms: _61  and  _62
REMARK   27  A    between atoms: _65  and  _67
REMARK   28  A    between atoms: _67  and  _68
REMARK   29  A    between atoms: _67  and  _70
REMARK   30  A    between atoms: _70  and  _71
REMARK   31  A    between atoms: _74  and  _76
REMARK   32  A    between atoms: _76  and  _77
REMARK   33  A    between atoms: _76  and  _79
REMARK   34  A    between atoms: _79  and  _80
REMARK   35  A    between atoms: _83  and  _85
REMARK   36  A    between atoms: _85  and  _86
REMARK   37  A    between atoms: _85  and  _88
REMARK   38  A    between atoms: _88  and  _89
REMARK   39  A    between atoms: _92  and  _94
REMARK   40  A    between atoms: _94  and  _95
REMARK   41  A    between atoms: _94  and  _97
REMARK   42  A    between atoms: _97  and  _98
REMARK   43  A    between atoms: _101  and  _103
REMARK   44  A    between atoms: _103  and  _104
REMARK   45  A    between atoms: _103  and  _106
REMARK   46  A    between atoms: _106  and  _107
REMARK   47  A    between atoms: _107  and  _108
REMARK   48  A    between atoms: _108  and  _109
REMARK   49  A    between atoms: _109  and  _110
REMARK   50  A    between atoms: _114  and  _116
REMARK   51  A    between atoms: _116  and  _117
REMARK   52  A    between atoms: _116  and  _119
REMARK   53  A    between atoms: _119  and  _120
REMARK   54  A    between atoms: _120  and  _121
REMARK   55  A    between atoms: _125  and  _126
REMARK   56  A    between atoms: _125  and  _128
REMARK   57  A    between atoms: _128  and  _129
REMARK   58  A    between atoms: _132  and  _134
REMARK   59  A    between atoms: _134  and  _135
REMARK   60  A    between atoms: _137  and  _139
REMARK   61  A    between atoms: _139  and  _140
REMARK   62  A    between atoms: _142  and  _144
REMARK   63  A    between atoms: _144  and  _145
REMARK   64  A    between atoms: _144  and  _147
REMARK   65  A    between atoms: _147  and  _148
REMARK   66  A    between atoms: _151  and  _153
REMARK   67  A    between atoms: _153  and  _154
REMARK   68  A    between atoms: _156  and  _158
REMARK   69  A    between atoms: _158  and  _159
REMARK   70  A    between atoms: _161  and  _163
REMARK   71  A    between atoms: _163  and  _164
REMARK   72  A    between atoms: _163  and  _166
REMARK   73  A    between atoms: _166  and  _167
REMARK   74  A    between atoms: _173  and  _175
REMARK   75  A    between atoms: _175  and  _176
REMARK   76  A    between atoms: _175  and  _178
REMARK   77  A    between atoms: _178  and  _179
REMARK   78  A    between atoms: _182  and  _184
REMARK   79  A    between atoms: _184  and  _185
REMARK   80  A    between atoms: _184  and  _187
REMARK   81  A    between atoms: _187  and  _188
REMARK   82  A    between atoms: _192  and  _193
REMARK   83  A    between atoms: _198  and  _200
REMARK   84  A    between atoms: _200  and  _201
REMARK   85  A    between atoms: _200  and  _203
REMARK   86  A    between atoms: _203  and  _204
REMARK   87  A    between atoms: _207  and  _209
REMARK   88  A    between atoms: _209  and  _210
REMARK   89  A    between atoms: _209  and  _212
REMARK   90  A    between atoms: _212  and  _213
REMARK   91  A    between atoms: _218  and  _220
REMARK   92  A    between atoms: _220  and  _221
REMARK   93  A    between atoms: _220  and  _223
REMARK   94  A    between atoms: _226  and  _228
REMARK   95  A    between atoms: _228  and  _229
REMARK   96  A    between atoms: _228  and  _231
REMARK   97  A    between atoms: _231  and  _232
REMARK   98  A    between atoms: _235  and  _237
REMARK   99  A    between atoms: _237  and  _238
REMARK  100  A    between atoms: _240  and  _242
REMARK  101  A    between atoms: _242  and  _243
REMARK  102  A    between atoms: _242  and  _245
REMARK  103  A    between atoms: _245  and  _246
REMARK  104  A    between atoms: _246  and  _247
REMARK  105  A    between atoms: _247  and  _248
REMARK  106  A    between atoms: _257  and  _259
REMARK  107  A    between atoms: _259  and  _260
REMARK  108  A    between atoms: _259  and  _262
REMARK  109  A    between atoms: _262  and  _263
REMARK  110  A    between atoms: _268  and  _270
REMARK  111  A    between atoms: _270  and  _271
REMARK  112  A    between atoms: _270  and  _273
REMARK  113  A    between atoms: _273  and  _274
REMARK  114  A    between atoms: _274  and  _275
REMARK  115  A    between atoms: _275  and  _276
REMARK  116  A    between atoms: _285  and  _287
REMARK  117  A    between atoms: _287  and  _288
REMARK  118  A    between atoms: _287  and  _290
REMARK  119  A    between atoms: _290  and  _291
REMARK  120  A    between atoms: _294  and  _296
REMARK  121  A    between atoms: _296  and  _297
REMARK  122  A    between atoms: _296  and  _299
REMARK  123  A    between atoms: _299  and  _300
REMARK  124  A    between atoms: _303  and  _305
REMARK  125  A    between atoms: _305  and  _306
REMARK  126  A    between atoms: _305  and  _308
REMARK  127  A    between atoms: _308  and  _309
REMARK  128  A    between atoms: _312  and  _314
REMARK  129  A    between atoms: _314  and  _315
REMARK  130  A    between atoms: _314  and  _317
REMARK  131  A    between atoms: _317  and  _318
REMARK  132  A    between atoms: _321  and  _323
REMARK  133  A    between atoms: _323  and  _324
REMARK  134  A    between atoms: _326  and  _328
REMARK  135  A    between atoms: _328  and  _329
REMARK  136  A    between atoms: _332  and  _334
REMARK  137  A    between atoms: _334  and  _335
REMARK  138  A    between atoms: _334  and  _337
REMARK  139  A    between atoms: _337  and  _338
REMARK  140  A    between atoms: _341  and  _343
REMARK  141  A    between atoms: _343  and  _344
REMARK  142  A    between atoms: _343  and  _346
REMARK  143  A    between atoms: _346  and  _347
REMARK  144  A    between atoms: _350  and  _352
REMARK  145  A    between atoms: _352  and  _353
REMARK  146  A    between atoms: _352  and  _355
REMARK  147  A    between atoms: _355  and  _356
REMARK  148  A    between atoms: _359  and  _361
REMARK  149  A    between atoms: _361  and  _362
REMARK  150  A    between atoms: _361  and  _364
REMARK  151  A    between atoms: _364  and  _365
REMARK  152  A    between atoms: _368  and  _370
REMARK  153  A    between atoms: _370  and  _371
REMARK  154  A    between atoms: _370  and  _373
REMARK  155  A    between atoms: _373  and  _374
REMARK  156  A    between atoms: _374  and  _375
REMARK  157  A    between atoms: _375  and  _376
REMARK  158  A    between atoms: _376  and  _377
REMARK  159  A    between atoms: _381  and  _383
REMARK  160  A    between atoms: _383  and  _384
REMARK  161  A    between atoms: _383  and  _386
REMARK  162  A    between atoms: _386  and  _387
REMARK  163  A    between atoms: _387  and  _388
REMARK  164  A    between atoms: _390  and  _392
REMARK  165  A    between atoms: _392  and  _393
REMARK  166  A    between atoms: _392  and  _395
REMARK  167  A    between atoms: _395  and  _396
REMARK  168  A    between atoms: _399  and  _401
REMARK  169  A    between atoms: _401  and  _402
REMARK  170  A    between atoms: _404  and  _406
REMARK  171  A    between atoms: _406  and  _407
REMARK  172  A    between atoms: _409  and  _411
REMARK  173  A    between atoms: _411  and  _412
REMARK  174  A    between atoms: _411  and  _414
REMARK  175  A    between atoms: _414  and  _415
REMARK  176  A    between atoms: _418  and  _420
REMARK  177  A    between atoms: _420  and  _421
REMARK  178  A    between atoms: _423  and  _425
REMARK  179  A    between atoms: _425  and  _426
REMARK  180  A    between atoms: _428  and  _430
REMARK  181  A    between atoms: _430  and  _431
REMARK  182  A    between atoms: _430  and  _433
REMARK  183  A    between atoms: _433  and  _434
REMARK  184  A    between atoms: _437  and  _439
REMARK  185  A    between atoms: _439  and  _440
REMARK  186  A    between atoms: _439  and  _442
REMARK  187  A    between atoms: _445  and  _447
REMARK  188  A    between atoms: _447  and  _448
REMARK  189  A    between atoms: _447  and  _450
REMARK  190  A    between atoms: _450  and  _451
REMARK  191  A    between atoms: _455  and  _456
REMARK  192  A    between atoms: _461  and  _463
REMARK  193  A    between atoms: _463  and  _464
REMARK  194  A    between atoms: _463  and  _466
REMARK  195  A    between atoms: _466  and  _467
REMARK  196  A    between atoms: _471  and  _472
REMARK  197  A    between atoms: _477  and  _479
REMARK  198  A    between atoms: _479  and  _480
REMARK  199  A    between atoms: _479  and  _482
REMARK  200  A    between atoms: _482  and  _483
REMARK  201  A    between atoms: _486  and  _488
REMARK  202  A    between atoms: _488  and  _489
REMARK  203  A    between atoms: _488  and  _491
REMARK  204  A    between atoms: _491  and  _492
REMARK  205  A    between atoms: _497  and  _499
REMARK  206  A    between atoms: _499  and  _500
REMARK  207  A    between atoms: _499  and  _502
REMARK  208  A    between atoms: _505  and  _507
REMARK  209  A    between atoms: _507  and  _508
REMARK  210  A    between atoms: _507  and  _510
REMARK  211  A    between atoms: _510  and  _511
REMARK  212  A    between atoms: _514  and  _516
REMARK  213  A    between atoms: _516  and  _517
REMARK  214  A    between atoms: _519  and  _521
REMARK  215  A    between atoms: _521  and  _522
REMARK  216  A    between atoms: _521  and  _524
REMARK  217  A    between atoms: _524  and  _525
REMARK  218  A    between atoms: _525  and  _526
REMARK  219  A    between atoms: _526  and  _527
REMARK                            x       y       z     vdW  Elec       q    Type
REMARK                         _______ _______ _______ _____ _____    ______ ____
ROOT
ATOM      1  CA  ASN A   5      -1.863  22.498  31.507  0.00  0.00    +0.158 C 
ENDROOT
BRANCH   1   4
ATOM      2  C   LEU A   4      -1.439  21.013  29.675  0.00  0.00    +0.241 C 
ATOM      3  O   LEU A   4      -2.059  20.104  30.246  0.00  0.00    -0.273 OA
ATOM      4  N   ASN A   5      -1.234  22.192  30.239  0.00  0.00    -0.297 N 
ATOM      5  H   ASN A   5      -0.625  22.895  29.774  0.00  0.00    +0.150 HD
BRANCH   2   6
ATOM      6  CA  LEU A   4      -0.838  20.787  28.290  0.00  0.00    +0.149 C 
BRANCH   6   8
ATOM      7  C   PRO A   3       0.474  18.889  27.434  0.00  0.00    +0.241 C 
ATOM      8  N   LEU A   4      -0.367  19.413  28.324  0.00  0.00    -0.297 N 
ATOM      9  H   LEU A   4      -0.708  18.800  29.092  0.00  0.00    +0.150 HD
ATOM     10  O   PRO A   3       1.085  19.552  26.603  0.00  0.00    -0.273 OA
BRANCH   7  17
ATOM     11  C   THR A   2       0.157  16.752  29.764  0.00  0.00    +0.246 C 
ATOM     12  O   THR A   2       1.233  17.235  30.129  0.00  0.00    -0.273 OA
ATOM     13  N   PRO A   3      -0.226  16.748  28.489  0.00  0.00    -0.272 N 
ATOM     14  CD  PRO A   3      -1.421  16.163  27.849  0.00  0.00    +0.094 C 
ATOM     15  CG  PRO A   3      -1.178  16.395  26.390  0.00  0.00    +0.024 C 
ATOM     16  CB  PRO A   3       0.277  16.693  26.215  0.00  0.00    +0.031 C 
ATOM     17  CA  PRO A   3       0.679  17.370  27.521  0.00  0.00    +0.152 C 
BRANCH  11  18
ATOM     18  CA  THR A   2      -0.731  16.031  30.763  0.00  0.00    +0.176 C 
BRANCH  18  21
ATOM     19  C   PRO A   1       0.142  14.367  32.207  0.00  0.00    +0.239 C 
ATOM     20  O   PRO A   1      -0.929  13.739  32.186  0.00  0.00    -0.274 OA
ATOM     21  N   THR A   2       0.254  15.557  31.669  0.00  0.00    -0.295 N 
ATOM     22  H   THR A   2       1.069  16.157  31.907  0.00  0.00    +0.150 HD
BRANCH  19  27
ATOM     23  N   PRO A   1       1.113  13.699  34.382  0.00  0.00    -0.210 NA
ATOM     24  CD  PRO A   1       1.261  12.288  34.798  0.00  0.00    +0.089 C 
ATOM     25  CG  PRO A   1       2.174  11.738  33.751  0.00  0.00    +0.021 C 
ATOM     26  CB  PRO A   1       1.775  12.452  32.490  0.00  0.00    +0.028 C 
ATOM     27  CA  PRO A   1       1.382  13.864  32.944  0.00  0.00    +0.149 C 
ENDBRANCH  19  27
ENDBRANCH  18  21
BRANCH  18  28
ATOM     28  CB  THR A   2      -1.767  16.925  31.491  0.00  0.00    +0.137 C 
ATOM     29  CG2 THR A   2      -1.104  17.996  32.324  0.00  0.00    +0.034 C 
BRANCH  28  30
ATOM     30  OG1 THR A   2      -2.651  17.514  30.540  0.00  0.00    -0.382 OA
ATOM     31  HG1 THR A   2      -2.130  18.067  29.905  0.00  0.00    +0.210 HD
ENDBRANCH  28  30
ENDBRANCH  18  28
ENDBRANCH  11  18
ENDBRANCH   7  17
ENDBRANCH   6   8
BRANCH   6  32
ATOM     32  CB  LEU A   4      -1.936  20.915  27.227  0.00  0.00    +0.029 C 
BRANCH  32  33
ATOM     33  CG  LEU A   4      -2.115  22.185  26.382  0.00  0.00    +0.002 C 
ATOM     34  CD2 LEU A   4      -3.375  21.993  25.578  0.00  0.00    +0.000 C 
ATOM     35  CD1 LEU A   4      -0.936  22.490  25.406  0.00  0.00    +0.000 C 
ENDBRANCH  32  33
ENDBRANCH   6  32
ENDBRANCH   2   6
ENDBRANCH   1   4
BRANCH   1  36
ATOM     36  C   ASN A   5      -3.325  22.866  31.261  0.00  0.00    +0.241 C 
ATOM     37  N   VAL A   6      -4.211  22.384  32.124  0.00  0.00    -0.297 N 
ATOM     38  H   VAL A   6      -3.888  21.895  32.983  0.00  0.00    +0.150 HD
ATOM     39  O   ASN A   5      -3.647  23.560  30.289  0.00  0.00    -0.273 OA
BRANCH  37  40
ATOM     40  CA  VAL A   6      -5.633  22.540  31.868  0.00  0.00    +0.149 C 
BRANCH  40  41
ATOM     41  C   VAL A   6      -6.303  23.174  33.064  0.00  0.00    +0.241 C 
ATOM     42  O   VAL A   6      -6.115  22.714  34.193  0.00  0.00    -0.273 OA
ATOM     43  N   ILE A   7      -7.052  24.248  32.810  0.00  0.00    -0.297 N 
ATOM     44  H   ILE A   7      -7.045  24.642  31.848  0.00  0.00    +0.150 HD
BRANCH  43  45
ATOM     45  CA  ILE A   7      -7.889  24.901  33.833  0.00  0.00    +0.149 C 
BRANCH  45  46
ATOM     46  C   ILE A   7      -9.314  24.342  33.668  0.00  0.00    +0.241 C 
ATOM     47  N   GLY A   8      -9.797  23.614  34.671  0.00  0.00    -0.295 N 
ATOM     48  H   GLY A   8      -9.252  23.532  35.553  0.00  0.00    +0.150 HD
ATOM     49  O   ILE A   7      -9.971  24.586  32.645  0.00  0.00    -0.273 OA
BRANCH  47  50
ATOM     50  CA  GLY A   8     -11.092  22.922  34.553  0.00  0.00    +0.176 C 
BRANCH  50  51
ATOM     51  C   GLY A   8     -12.250  23.721  35.130  0.00  0.00    +0.243 C 
ATOM     52  O   GLY A   8     -12.056  24.821  35.655  0.00  0.00    -0.273 OA
ATOM     53  N   ARG A   9     -13.463  23.158  35.046  0.00  0.00    -0.298 N 
ATOM     54  H   ARG A   9     -13.560  22.222  34.603  0.00  0.00    +0.150 HD
BRANCH  53  55
ATOM     55  CA  ARG A   9     -14.645  23.828  35.561  0.00  0.00    +0.137 C 
BRANCH  55  56
ATOM     56  C   ARG A   9     -14.544  24.170  37.056  0.00  0.00    +0.227 C 
ATOM     57  O   ARG A   9     -15.115  25.179  37.489  0.00  0.00    -0.286 OA
ENDBRANCH  55  56
BRANCH  55  58
ATOM     58  CB  ARG A   9     -15.910  23.009  35.284  0.00  0.00    +0.031 C 
BRANCH  58  59
ATOM     59  CG  ARG A   9     -16.252  22.858  33.796  0.00  0.00    +0.045 C 
BRANCH  59  60
ATOM     60  CD  ARG A   9     -17.609  22.188  33.558  0.00  0.00    +0.174 C 
BRANCH  60  61
ATOM     61  NE  ARG A   9     -17.620  20.814  34.083  0.00  0.00    -0.265 N 
ATOM     62  CZ  ARG A   9     -18.131  20.450  35.253  0.00  0.00    +0.342 C 
ATOM     63  NH2 ARG A   9     -18.704  21.356  36.035  0.00  0.00    -0.292 N 
ATOM     64 HH21 ARG A   9     -19.105  21.073  36.952  0.00  0.00    +0.255 HD
ATOM     65 HH22 ARG A   9     -18.752  22.349  35.731  0.00  0.00    +0.255 HD
ATOM     66  NH1 ARG A   9     -18.077  19.177  35.638  0.00  0.00    -0.292 N 
ATOM     67 HH11 ARG A   9     -18.478  18.894  36.555  0.00  0.00    +0.255 HD
ATOM     68 HH12 ARG A   9     -17.634  18.466  35.022  0.00  0.00    +0.255 HD
ATOM     69  HE  ARG A   9     -17.195  20.071  33.493  0.00  0.00    +0.259 HD
ENDBRANCH  60  61
ENDBRANCH  59  60
ENDBRANCH  58  59
ENDBRANCH  55  58
ENDBRANCH  53  55
ENDBRANCH  50  51
ENDBRANCH  47  50
ENDBRANCH  45  46
BRANCH  45  70
ATOM     70  CB  ILE A   7      -7.940  26.445  33.664  0.00  0.00    +0.027 C 
ATOM     71  CG2 ILE A   7      -8.861  27.099  34.756  0.00  0.00    +0.002 C 
BRANCH  70  72
ATOM     72  CG1 ILE A   7      -6.539  27.102  33.690  0.00  0.00    +0.002 C 
ATOM     73  CD1 ILE A   7      -5.776  26.927  35.009  0.00  0.00    +0.000 C 
ENDBRANCH  70  72
ENDBRANCH  45  70
ENDBRANCH  43  45
ENDBRANCH  40  41
BRANCH  40  74
ATOM     74  CB  VAL A   6      -6.262  21.159  31.524  0.00  0.00    +0.027 C 
ATOM     75  CG2 VAL A   6      -7.732  21.117  31.816  0.00  0.00    +0.002 C 
ATOM     76  CG1 VAL A   6      -5.943  20.782  30.056  0.00  0.00    +0.002 C 
ENDBRANCH  40  74
ENDBRANCH  37  40
ENDBRANCH   1  36
BRANCH   1  77
ATOM     77  CB  ASN A   5      -1.116  23.601  32.252  0.00  0.00    +0.114 C 
BRANCH  77  78
ATOM     78  CG  ASN A   5       0.364  23.306  32.392  0.00  0.00    +0.222 C 
ATOM     79  OD1 ASN A   5       0.756  22.172  32.691  0.00  0.00    -0.275 OA
ATOM     80  ND2 ASN A   5       1.199  24.326  32.175  0.00  0.00    -0.329 N 
ATOM     81 HD21 ASN A   5       2.226  24.183  32.255  0.00  0.00    +0.145 HD
ATOM     82 HD22 ASN A   5       0.822  25.263  31.926  0.00  0.00    +0.145 HD
ENDBRANCH  77  78
ENDBRANCH   1  77
TORSDOF 29
REMARK  Name = ../refined-set-2016/3u7s/3u7s_pocket.pdb
REMARK  219 active torsions:
REMARK  status: ('A' for Active; 'I' for Inactive)
REMARK    1  A    between atoms: _1  and  _3
REMARK    2  A    between atoms: _3  and  _4
REMARK    3  A    between atoms: _3  and  _6
REMARK    4  A    between atoms: _6  and  _7
REMARK    5  A    between atoms: _7  and  _8
REMARK    6  A    between atoms: _8  and  _9
REMARK    7  A    between atoms: _18  and  _20
REMARK    8  A    between atoms: _20  and  _21
REMARK    9  A    between atoms: _20  and  _23
REMARK   10  A    between atoms: _23  and  _24
REMARK   11  A    between atoms: _27  and  _29
REMARK   12  A    between atoms: _29  and  _30
REMARK   13  A    between atoms: _29  and  _32
REMARK   14  A    between atoms: _32  and  _33
REMARK   15  A    between atoms: _36  and  _38
REMARK   16  A    between atoms: _38  and  _39
REMARK   17  A    between atoms: _38  and  _41
REMARK   18  A    between atoms: _41  and  _42
REMARK   19  A    between atoms: _45  and  _47
REMARK   20  A    between atoms: _47  and  _48
REMARK   21  A    between atoms: _47  and  _50
REMARK   22  A    between atoms: _50  and  _51
REMARK   23  A    between atoms: _54  and  _56
REMARK   24  A    between atoms: _56  and  _57
REMARK   25  A    between atoms: _59  and  _61
REMARK   26  A    between atoms: _61  and  _62
REMARK   27  A    between atoms: _65  and  _67
REMARK   28  A    between atoms: _67  and  _68
REMARK   29  A    between atoms: _67  and  _70
REMARK   30  A    between atoms: _70  and  _71
REMARK   31  A    between atoms: _74  and  _76
REMARK   32  A    between atoms: _76  and  _77
REMARK   33  A    between atoms: _76  and  _79
REMARK   34  A    between atoms: _79  and  _80
REMARK   35  A    between atoms: _83  and  _85
REMARK   36  A    between atoms: _85  and  _86
REMARK   37  A    between atoms: _85  and  _88
REMARK   38  A    between atoms: _88  and  _89
REMARK   39  A    between atoms: _92  and  _94
REMARK   40  A    between atoms: _94  and  _95
REMARK   41  A    between atoms: _94  and  _97
REMARK   42  A    between atoms: _97  and  _98
REMARK   43  A    between atoms: _101  and  _103
REMARK   44  A    between atoms: _103  and  _104
REMARK   45  A    between atoms: _103  and  _106
REMARK   46  A    between atoms: _106  and  _107
REMARK   47  A    between atoms: _107  and  _108
REMARK   48  A    between atoms: _108  and  _109
REMARK   49  A    between atoms: _109  and  _110
REMARK   50  A    between atoms: _114  and  _116
REMARK   51  A    between atoms: _116  and  _117
REMARK   52  A    between atoms: _116  and  _119
REMARK   53  A    between atoms: _119  and  _120
REMARK   54  A    between atoms: _120  and  _121
REMARK   55  A    between atoms: _125  and  _126
REMARK   56  A    between atoms: _125  and  _128
REMARK   57  A    between atoms: _128  and  _129
REMARK   58  A    between atoms: _132  and  _134
REMARK   59  A    between atoms: _134  and  _135
REMARK   60  A    between atoms: _137  and  _139
REMARK   61  A    between atoms: _139  and  _140
REMARK   62  A    between atoms: _142  and  _144
REMARK   63  A    between atoms: _144  and  _145
REMARK   64  A    between atoms: _144  and  _147
REMARK   65  A    between atoms: _147  and  _148
REMARK   66  A    between atoms: _151  and  _153
REMARK   67  A    between atoms: _153  and  _154
REMARK   68  A    between atoms: _156  and  _158
REMARK   69  A    between atoms: _158  and  _159
REMARK   70  A    between atoms: _161  and  _163
REMARK   71  A    between atoms: _163  and  _164
REMARK   72  A    between atoms: _163  and  _166
REMARK   73  A    between atoms: _166  and  _167
REMARK   74  A    between atoms: _173  and  _175
REMARK   75  A    between atoms: _175  and  _176
REMARK   76  A    between atoms: _175  and  _178
REMARK   77  A    between atoms: _178  and  _179
REMARK   78  A    between atoms: _182  and  _184
REMARK   79  A    between atoms: _184  and  _185
REMARK   80  A    between atoms: _184  and  _187
REMARK   81  A    between atoms: _187  and  _188
REMARK   82  A    between atoms: _192  and  _193
REMARK   83  A    between atoms: _198  and  _200
REMARK   84  A    between atoms: _200  and  _201
REMARK   85  A    between atoms: _200  and  _203
REMARK   86  A    between atoms: _203  and  _204
REMARK   87  A    between atoms: _207  and  _209
REMARK   88  A    between atoms: _209  and  _210
REMARK   89  A    between atoms: _209  and  _212
REMARK   90  A    between atoms: _212  and  _213
REMARK   91  A    between atoms: _218  and  _220
REMARK   92  A    between atoms: _220  and  _221
REMARK   93  A    between atoms: _220  and  _223
REMARK   94  A    between atoms: _226  and  _228
REMARK   95  A    between atoms: _228  and  _229
REMARK   96  A    between atoms: _228  and  _231
REMARK   97  A    between atoms: _231  and  _232
REMARK   98  A    between atoms: _235  and  _237
REMARK   99  A    between atoms: _237  and  _238
REMARK  100  A    between atoms: _240  and  _242
REMARK  101  A    between atoms: _242  and  _243
REMARK  102  A    between atoms: _242  and  _245
REMARK  103  A    between atoms: _245  and  _246
REMARK  104  A    between atoms: _246  and  _247
REMARK  105  A    between atoms: _247  and  _248
REMARK  106  A    between atoms: _257  and  _259
REMARK  107  A    between atoms: _259  and  _260
REMARK  108  A    between atoms: _259  and  _262
REMARK  109  A    between atoms: _262  and  _263
REMARK  110  A    between atoms: _268  and  _270
REMARK  111  A    between atoms: _270  and  _271
REMARK  112  A    between atoms: _270  and  _273
REMARK  113  A    between atoms: _273  and  _274
REMARK  114  A    between atoms: _274  and  _275
REMARK  115  A    between atoms: _275  and  _276
REMARK  116  A    between atoms: _285  and  _287
REMARK  117  A    between atoms: _287  and  _288
REMARK  118  A    between atoms: _287  and  _290
REMARK  119  A    between atoms: _290  and  _291
REMARK  120  A    between atoms: _294  and  _296
REMARK  121  A    between atoms: _296  and  _297
REMARK  122  A    between atoms: _296  and  _299
REMARK  123  A    between atoms: _299  and  _300
REMARK  124  A    between atoms: _303  and  _305
REMARK  125  A    between atoms: _305  and  _306
REMARK  126  A    between atoms: _305  and  _308
REMARK  127  A    between atoms: _308  and  _309
REMARK  128  A    between atoms: _312  and  _314
REMARK  129  A    between atoms: _314  and  _315
REMARK  130  A    between atoms: _314  and  _317
REMARK  131  A    between atoms: _317  and  _318
REMARK  132  A    between atoms: _321  and  _323
REMARK  133  A    between atoms: _323  and  _324
REMARK  134  A    between atoms: _326  and  _328
REMARK  135  A    between atoms: _328  and  _329
REMARK  136  A    between atoms: _332  and  _334
REMARK  137  A    between atoms: _334  and  _335
REMARK  138  A    between atoms: _334  and  _337
REMARK  139  A    between atoms: _337  and  _338
REMARK  140  A    between atoms: _341  and  _343
REMARK  141  A    between atoms: _343  and  _344
REMARK  142  A    between atoms: _343  and  _346
REMARK  143  A    between atoms: _346  and  _347
REMARK  144  A    between atoms: _350  and  _352
REMARK  145  A    between atoms: _352  and  _353
REMARK  146  A    between atoms: _352  and  _355
REMARK  147  A    between atoms: _355  and  _356
REMARK  148  A    between atoms: _359  and  _361
REMARK  149  A    between atoms: _361  and  _362
REMARK  150  A    between atoms: _361  and  _364
REMARK  151  A    between atoms: _364  and  _365
REMARK  152  A    between atoms: _368  and  _370
REMARK  153  A    between atoms: _370  and  _371
REMARK  154  A    between atoms: _370  and  _373
REMARK  155  A    between atoms: _373  and  _374
REMARK  156  A    between atoms: _374  and  _375
REMARK  157  A    between atoms: _375  and  _376
REMARK  158  A    between atoms: _376  and  _377
REMARK  159  A    between atoms: _381  and  _383
REMARK  160  A    between atoms: _383  and  _384
REMARK  161  A    between atoms: _383  and  _386
REMARK  162  A    between atoms: _386  and  _387
REMARK  163  A    between atoms: _387  and  _388
REMARK  164  A    between atoms: _390  and  _392
REMARK  165  A    between atoms: _392  and  _393
REMARK  166  A    between atoms: _392  and  _395
REMARK  167  A    between atoms: _395  and  _396
REMARK  168  A    between atoms: _399  and  _401
REMARK  169  A    between atoms: _401  and  _402
REMARK  170  A    between atoms: _404  and  _406
REMARK  171  A    between atoms: _406  and  _407
REMARK  172  A    between atoms: _409  and  _411
REMARK  173  A    between atoms: _411  and  _412
REMARK  174  A    between atoms: _411  and  _414
REMARK  175  A    between atoms: _414  and  _415
REMARK  176  A    between atoms: _418  and  _420
REMARK  177  A    between atoms: _420  and  _421
REMARK  178  A    between atoms: _423  and  _425
REMARK  179  A    between atoms: _425  and  _426
REMARK  180  A    between atoms: _428  and  _430
REMARK  181  A    between atoms: _430  and  _431
REMARK  182  A    between atoms: _430  and  _433
REMARK  183  A    between atoms: _433  and  _434
REMARK  184  A    between atoms: _437  and  _439
REMARK  185  A    between atoms: _439  and  _440
REMARK  186  A    between atoms: _439  and  _442
REMARK  187  A    between atoms: _445  and  _447
REMARK  188  A    between atoms: _447  and  _448
REMARK  189  A    between atoms: _447  and  _450
REMARK  190  A    between atoms: _450  and  _451
REMARK  191  A    between atoms: _455  and  _456
REMARK  192  A    between atoms: _461  and  _463
REMARK  193  A    between atoms: _463  and  _464
REMARK  194  A    between atoms: _463  and  _466
REMARK  195  A    between atoms: _466  and  _467
REMARK  196  A    between atoms: _471  and  _472
REMARK  197  A    between atoms: _477  and  _479
REMARK  198  A    between atoms: _479  and  _480
REMARK  199  A    between atoms: _479  and  _482
REMARK  200  A    between atoms: _482  and  _483
REMARK  201  A    between atoms: _486  and  _488
REMARK  202  A    between atoms: _488  and  _489
REMARK  203  A    between atoms: _488  and  _491
REMARK  204  A    between atoms: _491  and  _492
REMARK  205  A    between atoms: _497  and  _499
REMARK  206  A    between atoms: _499  and  _500
REMARK  207  A    between atoms: _499  and  _502
REMARK  208  A    between atoms: _505  and  _507
REMARK  209  A    between atoms: _507  and  _508
REMARK  210  A    between atoms: _507  and  _510
REMARK  211  A    between atoms: _510  and  _511
REMARK  212  A    between atoms: _514  and  _516
REMARK  213  A    between atoms: _516  and  _517
REMARK  214  A    between atoms: _519  and  _521
REMARK  215  A    between atoms: _521  and  _522
REMARK  216  A    between atoms: _521  and  _524
REMARK  217  A    between atoms: _524  and  _525
REMARK  218  A    between atoms: _525  and  _526
REMARK  219  A    between atoms: _526  and  _527
REMARK                            x       y       z     vdW  Elec       q    Type
REMARK                         _______ _______ _______ _____ _____    ______ ____
ROOT
ATOM      1  O   HOH     1      -8.239  24.376  22.521  0.00  0.00    +0.000 OA
ENDROOT
TORSDOF 0
REMARK  Name = ../refined-set-2016/3u7s/3u7s_pocket.pdb
REMARK  219 active torsions:
REMARK  status: ('A' for Active; 'I' for Inactive)
REMARK    1  A    between atoms: _1  and  _3
REMARK    2  A    between atoms: _3  and  _4
REMARK    3  A    between atoms: _3  and  _6
REMARK    4  A    between atoms: _6  and  _7
REMARK    5  A    between atoms: _7  and  _8
REMARK    6  A    between atoms: _8  and  _9
REMARK    7  A    between atoms: _18  and  _20
REMARK    8  A    between atoms: _20  and  _21
REMARK    9  A    between atoms: _20  and  _23
REMARK   10  A    between atoms: _23  and  _24
REMARK   11  A    between atoms: _27  and  _29
REMARK   12  A    between atoms: _29  and  _30
REMARK   13  A    between atoms: _29  and  _32
REMARK   14  A    between atoms: _32  and  _33
REMARK   15  A    between atoms: _36  and  _38
REMARK   16  A    between atoms: _38  and  _39
REMARK   17  A    between atoms: _38  and  _41
REMARK   18  A    between atoms: _41  and  _42
REMARK   19  A    between atoms: _45  and  _47
REMARK   20  A    between atoms: _47  and  _48
REMARK   21  A    between atoms: _47  and  _50
REMARK   22  A    between atoms: _50  and  _51
REMARK   23  A    between atoms: _54  and  _56
REMARK   24  A    between atoms: _56  and  _57
REMARK   25  A    between atoms: _59  and  _61
REMARK   26  A    between atoms: _61  and  _62
REMARK   27  A    between atoms: _65  and  _67
REMARK   28  A    between atoms: _67  and  _68
REMARK   29  A    between atoms: _67  and  _70
REMARK   30  A    between atoms: _70  and  _71
REMARK   31  A    between atoms: _74  and  _76
REMARK   32  A    between atoms: _76  and  _77
REMARK   33  A    between atoms: _76  and  _79
REMARK   34  A    between atoms: _79  and  _80
REMARK   35  A    between atoms: _83  and  _85
REMARK   36  A    between atoms: _85  and  _86
REMARK   37  A    between atoms: _85  and  _88
REMARK   38  A    between atoms: _88  and  _89
REMARK   39  A    between atoms: _92  and  _94
REMARK   40  A    between atoms: _94  and  _95
REMARK   41  A    between atoms: _94  and  _97
REMARK   42  A    between atoms: _97  and  _98
REMARK   43  A    between atoms: _101  and  _103
REMARK   44  A    between atoms: _103  and  _104
REMARK   45  A    between atoms: _103  and  _106
REMARK   46  A    between atoms: _106  and  _107
REMARK   47  A    between atoms: _107  and  _108
REMARK   48  A    between atoms: _108  and  _109
REMARK   49  A    between atoms: _109  and  _110
REMARK   50  A    between atoms: _114  and  _116
REMARK   51  A    between atoms: _116  and  _117
REMARK   52  A    between atoms: _116  and  _119
REMARK   53  A    between atoms: _119  and  _120
REMARK   54  A    between atoms: _120  and  _121
REMARK   55  A    between atoms: _125  and  _126
REMARK   56  A    between atoms: _125  and  _128
REMARK   57  A    between atoms: _128  and  _129
REMARK   58  A    between atoms: _132  and  _134
REMARK   59  A    between atoms: _134  and  _135
REMARK   60  A    between atoms: _137  and  _139
REMARK   61  A    between atoms: _139  and  _140
REMARK   62  A    between atoms: _142  and  _144
REMARK   63  A    between atoms: _144  and  _145
REMARK   64  A    between atoms: _144  and  _147
REMARK   65  A    between atoms: _147  and  _148
REMARK   66  A    between atoms: _151  and  _153
REMARK   67  A    between atoms: _153  and  _154
REMARK   68  A    between atoms: _156  and  _158
REMARK   69  A    between atoms: _158  and  _159
REMARK   70  A    between atoms: _161  and  _163
REMARK   71  A    between atoms: _163  and  _164
REMARK   72  A    between atoms: _163  and  _166
REMARK   73  A    between atoms: _166  and  _167
REMARK   74  A    between atoms: _173  and  _175
REMARK   75  A    between atoms: _175  and  _176
REMARK   76  A    between atoms: _175  and  _178
REMARK   77  A    between atoms: _178  and  _179
REMARK   78  A    between atoms: _182  and  _184
REMARK   79  A    between atoms: _184  and  _185
REMARK   80  A    between atoms: _184  and  _187
REMARK   81  A    between atoms: _187  and  _188
REMARK   82  A    between atoms: _192  and  _193
REMARK   83  A    between atoms: _198  and  _200
REMARK   84  A    between atoms: _200  and  _201
REMARK   85  A    between atoms: _200  and  _203
REMARK   86  A    between atoms: _203  and  _204
REMARK   87  A    between atoms: _207  and  _209
REMARK   88  A    between atoms: _209  and  _210
REMARK   89  A    between atoms: _209  and  _212
REMARK   90  A    between atoms: _212  and  _213
REMARK   91  A    between atoms: _218  and  _220
REMARK   92  A    between atoms: _220  and  _221
REMARK   93  A    between atoms: _220  and  _223
REMARK   94  A    between atoms: _226  and  _228
REMARK   95  A    between atoms: _228  and  _229
REMARK   96  A    between atoms: _228  and  _231
REMARK   97  A    between atoms: _231  and  _232
REMARK   98  A    between atoms: _235  and  _237
REMARK   99  A    between atoms: _237  and  _238
REMARK  100  A    between atoms: _240  and  _242
REMARK  101  A    between atoms: _242  and  _243
REMARK  102  A    between atoms: _242  and  _245
REMARK  103  A    between atoms: _245  and  _246
REMARK  104  A    between atoms: _246  and  _247
REMARK  105  A    between atoms: _247  and  _248
REMARK  106  A    between atoms: _257  and  _259
REMARK  107  A    between atoms: _259  and  _260
REMARK  108  A    between atoms: _259  and  _262
REMARK  109  A    between atoms: _262  and  _263
REMARK  110  A    between atoms: _268  and  _270
REMARK  111  A    between atoms: _270  and  _271
REMARK  112  A    between atoms: _270  and  _273
REMARK  113  A    between atoms: _273  and  _274
REMARK  114  A    between atoms: _274  and  _275
REMARK  115  A    between atoms: _275  and  _276
REMARK  116  A    between atoms: _285  and  _287
REMARK  117  A    between atoms: _287  and  _288
REMARK  118  A    between atoms: _287  and  _290
REMARK  119  A    between atoms: _290  and  _291
REMARK  120  A    between atoms: _294  and  _296
REMARK  121  A    between atoms: _296  and  _297
REMARK  122  A    between atoms: _296  and  _299
REMARK  123  A    between atoms: _299  and  _300
REMARK  124  A    between atoms: _303  and  _305
REMARK  125  A    between atoms: _305  and  _306
REMARK  126  A    between atoms: _305  and  _308
REMARK  127  A    between atoms: _308  and  _309
REMARK  128  A    between atoms: _312  and  _314
REMARK  129  A    between atoms: _314  and  _315
REMARK  130  A    between atoms: _314  and  _317
REMARK  131  A    between atoms: _317  and  _318
REMARK  132  A    between atoms: _321  and  _323
REMARK  133  A    between atoms: _323  and  _324
REMARK  134  A    between atoms: _326  and  _328
REMARK  135  A    between atoms: _328  and  _329
REMARK  136  A    between atoms: _332  and  _334
REMARK  137  A    between atoms: _334  and  _335
REMARK  138  A    between atoms: _334  and  _337
REMARK  139  A    between atoms: _337  and  _338
REMARK  140  A    between atoms: _341  and  _343
REMARK  141  A    between atoms: _343  and  _344
REMARK  142  A    between atoms: _343  and  _346
REMARK  143  A    between atoms: _346  and  _347
REMARK  144  A    between atoms: _350  and  _352
REMARK  145  A    between atoms: _352  and  _353
REMARK  146  A    between atoms: _352  and  _355
REMARK  147  A    between atoms: _355  and  _356
REMARK  148  A    between atoms: _359  and  _361
REMARK  149  A    between atoms: _361  and  _362
REMARK  150  A    between atoms: _361  and  _364
REMARK  151  A    between atoms: _364  and  _365
REMARK  152  A    between atoms: _368  and  _370
REMARK  153  A    between atoms: _370  and  _371
REMARK  154  A    between atoms: _370  and  _373
REMARK  155  A    between atoms: _373  and  _374
REMARK  156  A    between atoms: _374  and  _375
REMARK  157  A    between atoms: _375  and  _376
REMARK  158  A    between atoms: _376  and  _377
REMARK  159  A    between atoms: _381  and  _383
REMARK  160  A    between atoms: _383  and  _384
REMARK  161  A    between atoms: _383  and  _386
REMARK  162  A    between atoms: _386  and  _387
REMARK  163  A    between atoms: _387  and  _388
REMARK  164  A    between atoms: _390  and  _392
REMARK  165  A    between atoms: _392  and  _393
REMARK  166  A    between atoms: _392  and  _395
REMARK  167  A    between atoms: _395  and  _396
REMARK  168  A    between atoms: _399  and  _401
REMARK  169  A    between atoms: _401  and  _402
REMARK  170  A    between atoms: _404  and  _406
REMARK  171  A    between atoms: _406  and  _407
REMARK  172  A    between atoms: _409  and  _411
REMARK  173  A    between atoms: _411  and  _412
REMARK  174  A    between atoms: _411  and  _414
REMARK  175  A    between atoms: _414  and  _415
REMARK  176  A    between atoms: _418  and  _420
REMARK  177  A    between atoms: _420  and  _421
REMARK  178  A    between atoms: _423  and  _425
REMARK  179  A    between atoms: _425  and  _426
REMARK  180  A    between atoms: _428  and  _430
REMARK  181  A    between atoms: _430  and  _431
REMARK  182  A    between atoms: _430  and  _433
REMARK  183  A    between atoms: _433  and  _434
REMARK  184  A    between atoms: _437  and  _439
REMARK  185  A    between atoms: _439  and  _440
REMARK  186  A    between atoms: _439  and  _442
REMARK  187  A    between atoms: _445  and  _447
REMARK  188  A    between atoms: _447  and  _448
REMARK  189  A    between atoms: _447  and  _450
REMARK  190  A    between atoms: _450  and  _451
REMARK  191  A    between atoms: _455  and  _456
REMARK  192  A    between atoms: _461  and  _463
REMARK  193  A    between atoms: _463  and  _464
REMARK  194  A    between atoms: _463  and  _466
REMARK  195  A    between atoms: _466  and  _467
REMARK  196  A    between atoms: _471  and  _472
REMARK  197  A    between atoms: _477  and  _479
REMARK  198  A    between atoms: _479  and  _480
REMARK  199  A    between atoms: _479  and  _482
REMARK  200  A    between atoms: _482  and  _483
REMARK  201  A    between atoms: _486  and  _488
REMARK  202  A    between atoms: _488  and  _489
REMARK  203  A    between atoms: _488  and  _491
REMARK  204  A    between atoms: _491  and  _492
REMARK  205  A    between atoms: _497  and  _499
REMARK  206  A    between atoms: _499  and  _500
REMARK  207  A    between atoms: _499  and  _502
REMARK  208  A    between atoms: _505  and  _507
REMARK  209  A    between atoms: _507  and  _508
REMARK  210  A    between atoms: _507  and  _510
REMARK  211  A    between atoms: _510  and  _511
REMARK  212  A    between atoms: _514  and  _516
REMARK  213  A    between atoms: _516  and  _517
REMARK  214  A    between atoms: _519  and  _521
REMARK  215  A    between atoms: _521  and  _522
REMARK  216  A    between atoms: _521  and  _524
REMARK  217  A    between atoms: _524  and  _525
REMARK  218  A    between atoms: _525  and  _526
REMARK  219  A    between atoms: _526  and  _527
REMARK                            x       y       z     vdW  Elec       q    Type
REMARK                         _______ _______ _______ _____ _____    ______ ____
ROOT
ATOM      1  O   HOH     1      -9.695  24.182  16.016  0.00  0.00    +0.000 OA
ENDROOT
TORSDOF 0
REMARK  Name = ../refined-set-2016/3u7s/3u7s_pocket.pdb
REMARK  219 active torsions:
REMARK  status: ('A' for Active; 'I' for Inactive)
REMARK    1  A    between atoms: _1  and  _3
REMARK    2  A    between atoms: _3  and  _4
REMARK    3  A    between atoms: _3  and  _6
REMARK    4  A    between atoms: _6  and  _7
REMARK    5  A    between atoms: _7  and  _8
REMARK    6  A    between atoms: _8  and  _9
REMARK    7  A    between atoms: _18  and  _20
REMARK    8  A    between atoms: _20  and  _21
REMARK    9  A    between atoms: _20  and  _23
REMARK   10  A    between atoms: _23  and  _24
REMARK   11  A    between atoms: _27  and  _29
REMARK   12  A    between atoms: _29  and  _30
REMARK   13  A    between atoms: _29  and  _32
REMARK   14  A    between atoms: _32  and  _33
REMARK   15  A    between atoms: _36  and  _38
REMARK   16  A    between atoms: _38  and  _39
REMARK   17  A    between atoms: _38  and  _41
REMARK   18  A    between atoms: _41  and  _42
REMARK   19  A    between atoms: _45  and  _47
REMARK   20  A    between atoms: _47  and  _48
REMARK   21  A    between atoms: _47  and  _50
REMARK   22  A    between atoms: _50  and  _51
REMARK   23  A    between atoms: _54  and  _56
REMARK   24  A    between atoms: _56  and  _57
REMARK   25  A    between atoms: _59  and  _61
REMARK   26  A    between atoms: _61  and  _62
REMARK   27  A    between atoms: _65  and  _67
REMARK   28  A    between atoms: _67  and  _68
REMARK   29  A    between atoms: _67  and  _70
REMARK   30  A    between atoms: _70  and  _71
REMARK   31  A    between atoms: _74  and  _76
REMARK   32  A    between atoms: _76  and  _77
REMARK   33  A    between atoms: _76  and  _79
REMARK   34  A    between atoms: _79  and  _80
REMARK   35  A    between atoms: _83  and  _85
REMARK   36  A    between atoms: _85  and  _86
REMARK   37  A    between atoms: _85  and  _88
REMARK   38  A    between atoms: _88  and  _89
REMARK   39  A    between atoms: _92  and  _94
REMARK   40  A    between atoms: _94  and  _95
REMARK   41  A    between atoms: _94  and  _97
REMARK   42  A    between atoms: _97  and  _98
REMARK   43  A    between atoms: _101  and  _103
REMARK   44  A    between atoms: _103  and  _104
REMARK   45  A    between atoms: _103  and  _106
REMARK   46  A    between atoms: _106  and  _107
REMARK   47  A    between atoms: _107  and  _108
REMARK   48  A    between atoms: _108  and  _109
REMARK   49  A    between atoms: _109  and  _110
REMARK   50  A    between atoms: _114  and  _116
REMARK   51  A    between atoms: _116  and  _117
REMARK   52  A    between atoms: _116  and  _119
REMARK   53  A    between atoms: _119  and  _120
REMARK   54  A    between atoms: _120  and  _121
REMARK   55  A    between atoms: _125  and  _126
REMARK   56  A    between atoms: _125  and  _128
REMARK   57  A    between atoms: _128  and  _129
REMARK   58  A    between atoms: _132  and  _134
REMARK   59  A    between atoms: _134  and  _135
REMARK   60  A    between atoms: _137  and  _139
REMARK   61  A    between atoms: _139  and  _140
REMARK   62  A    between atoms: _142  and  _144
REMARK   63  A    between atoms: _144  and  _145
REMARK   64  A    between atoms: _144  and  _147
REMARK   65  A    between atoms: _147  and  _148
REMARK   66  A    between atoms: _151  and  _153
REMARK   67  A    between atoms: _153  and  _154
REMARK   68  A    between atoms: _156  and  _158
REMARK   69  A    between atoms: _158  and  _159
REMARK   70  A    between atoms: _161  and  _163
REMARK   71  A    between atoms: _163  and  _164
REMARK   72  A    between atoms: _163  and  _166
REMARK   73  A    between atoms: _166  and  _167
REMARK   74  A    between atoms: _173  and  _175
REMARK   75  A    between atoms: _175  and  _176
REMARK   76  A    between atoms: _175  and  _178
REMARK   77  A    between atoms: _178  and  _179
REMARK   78  A    between atoms: _182  and  _184
REMARK   79  A    between atoms: _184  and  _185
REMARK   80  A    between atoms: _184  and  _187
REMARK   81  A    between atoms: _187  and  _188
REMARK   82  A    between atoms: _192  and  _193
REMARK   83  A    between atoms: _198  and  _200
REMARK   84  A    between atoms: _200  and  _201
REMARK   85  A    between atoms: _200  and  _203
REMARK   86  A    between atoms: _203  and  _204
REMARK   87  A    between atoms: _207  and  _209
REMARK   88  A    between atoms: _209  and  _210
REMARK   89  A    between atoms: _209  and  _212
REMARK   90  A    between atoms: _212  and  _213
REMARK   91  A    between atoms: _218  and  _220
REMARK   92  A    between atoms: _220  and  _221
REMARK   93  A    between atoms: _220  and  _223
REMARK   94  A    between atoms: _226  and  _228
REMARK   95  A    between atoms: _228  and  _229
REMARK   96  A    between atoms: _228  and  _231
REMARK   97  A    between atoms: _231  and  _232
REMARK   98  A    between atoms: _235  and  _237
REMARK   99  A    between atoms: _237  and  _238
REMARK  100  A    between atoms: _240  and  _242
REMARK  101  A    between atoms: _242  and  _243
REMARK  102  A    between atoms: _242  and  _245
REMARK  103  A    between atoms: _245  and  _246
REMARK  104  A    between atoms: _246  and  _247
REMARK  105  A    between atoms: _247  and  _248
REMARK  106  A    between atoms: _257  and  _259
REMARK  107  A    between atoms: _259  and  _260
REMARK  108  A    between atoms: _259  and  _262
REMARK  109  A    between atoms: _262  and  _263
REMARK  110  A    between atoms: _268  and  _270
REMARK  111  A    between atoms: _270  and  _271
REMARK  112  A    between atoms: _270  and  _273
REMARK  113  A    between atoms: _273  and  _274
REMARK  114  A    between atoms: _274  and  _275
REMARK  115  A    between atoms: _275  and  _276
REMARK  116  A    between atoms: _285  and  _287
REMARK  117  A    between atoms: _287  and  _288
REMARK  118  A    between atoms: _287  and  _290
REMARK  119  A    between atoms: _290  and  _291
REMARK  120  A    between atoms: _294  and  _296
REMARK  121  A    between atoms: _296  and  _297
REMARK  122  A    between atoms: _296  and  _299
REMARK  123  A    between atoms: _299  and  _300
REMARK  124  A    between atoms: _303  and  _305
REMARK  125  A    between atoms: _305  and  _306
REMARK  126  A    between atoms: _305  and  _308
REMARK  127  A    between atoms: _308  and  _309
REMARK  128  A    between atoms: _312  and  _314
REMARK  129  A    between atoms: _314  and  _315
REMARK  130  A    between atoms: _314  and  _317
REMARK  131  A    between atoms: _317  and  _318
REMARK  132  A    between atoms: _321  and  _323
REMARK  133  A    between atoms: _323  and  _324
REMARK  134  A    between atoms: _326  and  _328
REMARK  135  A    between atoms: _328  and  _329
REMARK  136  A    between atoms: _332  and  _334
REMARK  137  A    between atoms: _334  and  _335
REMARK  138  A    between atoms: _334  and  _337
REMARK  139  A    between atoms: _337  and  _338
REMARK  140  A    between atoms: _341  and  _343
REMARK  141  A    between atoms: _343  and  _344
REMARK  142  A    between atoms: _343  and  _346
REMARK  143  A    between atoms: _346  and  _347
REMARK  144  A    between atoms: _350  and  _352
REMARK  145  A    between atoms: _352  and  _353
REMARK  146  A    between atoms: _352  and  _355
REMARK  147  A    between atoms: _355  and  _356
REMARK  148  A    between atoms: _359  and  _361
REMARK  149  A    between atoms: _361  and  _362
REMARK  150  A    between atoms: _361  and  _364
REMARK  151  A    between atoms: _364  and  _365
REMARK  152  A    between atoms: _368  and  _370
REMARK  153  A    between atoms: _370  and  _371
REMARK  154  A    between atoms: _370  and  _373
REMARK  155  A    between atoms: _373  and  _374
REMARK  156  A    between atoms: _374  and  _375
REMARK  157  A    between atoms: _375  and  _376
REMARK  158  A    between atoms: _376  and  _377
REMARK  159  A    between atoms: _381  and  _383
REMARK  160  A    between atoms: _383  and  _384
REMARK  161  A    between atoms: _383  and  _386
REMARK  162  A    between atoms: _386  and  _387
REMARK  163  A    between atoms: _387  and  _388
REMARK  164  A    between atoms: _390  and  _392
REMARK  165  A    between atoms: _392  and  _393
REMARK  166  A    between atoms: _392  and  _395
REMARK  167  A    between atoms: _395  and  _396
REMARK  168  A    between atoms: _399  and  _401
REMARK  169  A    between atoms: _401  and  _402
REMARK  170  A    between atoms: _404  and  _406
REMARK  171  A    between atoms: _406  and  _407
REMARK  172  A    between atoms: _409  and  _411
REMARK  173  A    between atoms: _411  and  _412
REMARK  174  A    between atoms: _411  and  _414
REMARK  175  A    between atoms: _414  and  _415
REMARK  176  A    between atoms: _418  and  _420
REMARK  177  A    between atoms: _420  and  _421
REMARK  178  A    between atoms: _423  and  _425
REMARK  179  A    between atoms: _425  and  _426
REMARK  180  A    between atoms: _428  and  _430
REMARK  181  A    between atoms: _430  and  _431
REMARK  182  A    between atoms: _430  and  _433
REMARK  183  A    between atoms: _433  and  _434
REMARK  184  A    between atoms: _437  and  _439
REMARK  185  A    between atoms: _439  and  _440
REMARK  186  A    between atoms: _439  and  _442
REMARK  187  A    between atoms: _445  and  _447
REMARK  188  A    between atoms: _447  and  _448
REMARK  189  A    between atoms: _447  and  _450
REMARK  190  A    between atoms: _450  and  _451
REMARK  191  A    between atoms: _455  and  _456
REMARK  192  A    between atoms: _461  and  _463
REMARK  193  A    between atoms: _463  and  _464
REMARK  194  A    between atoms: _463  and  _466
REMARK  195  A    between atoms: _466  and  _467
REMARK  196  A    between atoms: _471  and  _472
REMARK  197  A    between atoms: _477  and  _479
REMARK  198  A    between atoms: _479  and  _480
REMARK  199  A    between atoms: _479  and  _482
REMARK  200  A    between atoms: _482  and  _483
REMARK  201  A    between atoms: _486  and  _488
REMARK  202  A    between atoms: _488  and  _489
REMARK  203  A    between atoms: _488  and  _491
REMARK  204  A    between atoms: _491  and  _492
REMARK  205  A    between atoms: _497  and  _499
REMARK  206  A    between atoms: _499  and  _500
REMARK  207  A    between atoms: _499  and  _502
REMARK  208  A    between atoms: _505  and  _507
REMARK  209  A    between atoms: _507  and  _508
REMARK  210  A    between atoms: _507  and  _510
REMARK  211  A    between atoms: _510  and  _511
REMARK  212  A    between atoms: _514  and  _516
REMARK  213  A    between atoms: _516  and  _517
REMARK  214  A    between atoms: _519  and  _521
REMARK  215  A    between atoms: _521  and  _522
REMARK  216  A    between atoms: _521  and  _524
REMARK  217  A    between atoms: _524  and  _525
REMARK  218  A    between atoms: _525  and  _526
REMARK  219  A    between atoms: _526  and  _527
REMARK                            x       y       z     vdW  Elec       q    Type
REMARK                         _______ _______ _______ _____ _____    ______ ____
ROOT
ATOM      1  O   HOH     1     -12.809  17.423  14.128  0.00  0.00    +0.000 OA
ENDROOT
TORSDOF 0
REMARK  Name = ../refined-set-2016/3u7s/3u7s_pocket.pdb
REMARK  219 active torsions:
REMARK  status: ('A' for Active; 'I' for Inactive)
REMARK    1  A    between atoms: _1  and  _3
REMARK    2  A    between atoms: _3  and  _4
REMARK    3  A    between atoms: _3  and  _6
REMARK    4  A    between atoms: _6  and  _7
REMARK    5  A    between atoms: _7  and  _8
REMARK    6  A    between atoms: _8  and  _9
REMARK    7  A    between atoms: _18  and  _20
REMARK    8  A    between atoms: _20  and  _21
REMARK    9  A    between atoms: _20  and  _23
REMARK   10  A    between atoms: _23  and  _24
REMARK   11  A    between atoms: _27  and  _29
REMARK   12  A    between atoms: _29  and  _30
REMARK   13  A    between atoms: _29  and  _32
REMARK   14  A    between atoms: _32  and  _33
REMARK   15  A    between atoms: _36  and  _38
REMARK   16  A    between atoms: _38  and  _39
REMARK   17  A    between atoms: _38  and  _41
REMARK   18  A    between atoms: _41  and  _42
REMARK   19  A    between atoms: _45  and  _47
REMARK   20  A    between atoms: _47  and  _48
REMARK   21  A    between atoms: _47  and  _50
REMARK   22  A    between atoms: _50  and  _51
REMARK   23  A    between atoms: _54  and  _56
REMARK   24  A    between atoms: _56  and  _57
REMARK   25  A    between atoms: _59  and  _61
REMARK   26  A    between atoms: _61  and  _62
REMARK   27  A    between atoms: _65  and  _67
REMARK   28  A    between atoms: _67  and  _68
REMARK   29  A    between atoms: _67  and  _70
REMARK   30  A    between atoms: _70  and  _71
REMARK   31  A    between atoms: _74  and  _76
REMARK   32  A    between atoms: _76  and  _77
REMARK   33  A    between atoms: _76  and  _79
REMARK   34  A    between atoms: _79  and  _80
REMARK   35  A    between atoms: _83  and  _85
REMARK   36  A    between atoms: _85  and  _86
REMARK   37  A    between atoms: _85  and  _88
REMARK   38  A    between atoms: _88  and  _89
REMARK   39  A    between atoms: _92  and  _94
REMARK   40  A    between atoms: _94  and  _95
REMARK   41  A    between atoms: _94  and  _97
REMARK   42  A    between atoms: _97  and  _98
REMARK   43  A    between atoms: _101  and  _103
REMARK   44  A    between atoms: _103  and  _104
REMARK   45  A    between atoms: _103  and  _106
REMARK   46  A    between atoms: _106  and  _107
REMARK   47  A    between atoms: _107  and  _108
REMARK   48  A    between atoms: _108  and  _109
REMARK   49  A    between atoms: _109  and  _110
REMARK   50  A    between atoms: _114  and  _116
REMARK   51  A    between atoms: _116  and  _117
REMARK   52  A    between atoms: _116  and  _119
REMARK   53  A    between atoms: _119  and  _120
REMARK   54  A    between atoms: _120  and  _121
REMARK   55  A    between atoms: _125  and  _126
REMARK   56  A    between atoms: _125  and  _128
REMARK   57  A    between atoms: _128  and  _129
REMARK   58  A    between atoms: _132  and  _134
REMARK   59  A    between atoms: _134  and  _135
REMARK   60  A    between atoms: _137  and  _139
REMARK   61  A    between atoms: _139  and  _140
REMARK   62  A    between atoms: _142  and  _144
REMARK   63  A    between atoms: _144  and  _145
REMARK   64  A    between atoms: _144  and  _147
REMARK   65  A    between atoms: _147  and  _148
REMARK   66  A    between atoms: _151  and  _153
REMARK   67  A    between atoms: _153  and  _154
REMARK   68  A    between atoms: _156  and  _158
REMARK   69  A    between atoms: _158  and  _159
REMARK   70  A    between atoms: _161  and  _163
REMARK   71  A    between atoms: _163  and  _164
REMARK   72  A    between atoms: _163  and  _166
REMARK   73  A    between atoms: _166  and  _167
REMARK   74  A    between atoms: _173  and  _175
REMARK   75  A    between atoms: _175  and  _176
REMARK   76  A    between atoms: _175  and  _178
REMARK   77  A    between atoms: _178  and  _179
REMARK   78  A    between atoms: _182  and  _184
REMARK   79  A    between atoms: _184  and  _185
REMARK   80  A    between atoms: _184  and  _187
REMARK   81  A    between atoms: _187  and  _188
REMARK   82  A    between atoms: _192  and  _193
REMARK   83  A    between atoms: _198  and  _200
REMARK   84  A    between atoms: _200  and  _201
REMARK   85  A    between atoms: _200  and  _203
REMARK   86  A    between atoms: _203  and  _204
REMARK   87  A    between atoms: _207  and  _209
REMARK   88  A    between atoms: _209  and  _210
REMARK   89  A    between atoms: _209  and  _212
REMARK   90  A    between atoms: _212  and  _213
REMARK   91  A    between atoms: _218  and  _220
REMARK   92  A    between atoms: _220  and  _221
REMARK   93  A    between atoms: _220  and  _223
REMARK   94  A    between atoms: _226  and  _228
REMARK   95  A    between atoms: _228  and  _229
REMARK   96  A    between atoms: _228  and  _231
REMARK   97  A    between atoms: _231  and  _232
REMARK   98  A    between atoms: _235  and  _237
REMARK   99  A    between atoms: _237  and  _238
REMARK  100  A    between atoms: _240  and  _242
REMARK  101  A    between atoms: _242  and  _243
REMARK  102  A    between atoms: _242  and  _245
REMARK  103  A    between atoms: _245  and  _246
REMARK  104  A    between atoms: _246  and  _247
REMARK  105  A    between atoms: _247  and  _248
REMARK  106  A    between atoms: _257  and  _259
REMARK  107  A    between atoms: _259  and  _260
REMARK  108  A    between atoms: _259  and  _262
REMARK  109  A    between atoms: _262  and  _263
REMARK  110  A    between atoms: _268  and  _270
REMARK  111  A    between atoms: _270  and  _271
REMARK  112  A    between atoms: _270  and  _273
REMARK  113  A    between atoms: _273  and  _274
REMARK  114  A    between atoms: _274  and  _275
REMARK  115  A    between atoms: _275  and  _276
REMARK  116  A    between atoms: _285  and  _287
REMARK  117  A    between atoms: _287  and  _288
REMARK  118  A    between atoms: _287  and  _290
REMARK  119  A    between atoms: _290  and  _291
REMARK  120  A    between atoms: _294  and  _296
REMARK  121  A    between atoms: _296  and  _297
REMARK  122  A    between atoms: _296  and  _299
REMARK  123  A    between atoms: _299  and  _300
REMARK  124  A    between atoms: _303  and  _305
REMARK  125  A    between atoms: _305  and  _306
REMARK  126  A    between atoms: _305  and  _308
REMARK  127  A    between atoms: _308  and  _309
REMARK  128  A    between atoms: _312  and  _314
REMARK  129  A    between atoms: _314  and  _315
REMARK  130  A    between atoms: _314  and  _317
REMARK  131  A    between atoms: _317  and  _318
REMARK  132  A    between atoms: _321  and  _323
REMARK  133  A    between atoms: _323  and  _324
REMARK  134  A    between atoms: _326  and  _328
REMARK  135  A    between atoms: _328  and  _329
REMARK  136  A    between atoms: _332  and  _334
REMARK  137  A    between atoms: _334  and  _335
REMARK  138  A    between atoms: _334  and  _337
REMARK  139  A    between atoms: _337  and  _338
REMARK  140  A    between atoms: _341  and  _343
REMARK  141  A    between atoms: _343  and  _344
REMARK  142  A    between atoms: _343  and  _346
REMARK  143  A    between atoms: _346  and  _347
REMARK  144  A    between atoms: _350  and  _352
REMARK  145  A    between atoms: _352  and  _353
REMARK  146  A    between atoms: _352  and  _355
REMARK  147  A    between atoms: _355  and  _356
REMARK  148  A    between atoms: _359  and  _361
REMARK  149  A    between atoms: _361  and  _362
REMARK  150  A    between atoms: _361  and  _364
REMARK  151  A    between atoms: _364  and  _365
REMARK  152  A    between atoms: _368  and  _370
REMARK  153  A    between atoms: _370  and  _371
REMARK  154  A    between atoms: _370  and  _373
REMARK  155  A    between atoms: _373  and  _374
REMARK  156  A    between atoms: _374  and  _375
REMARK  157  A    between atoms: _375  and  _376
REMARK  158  A    between atoms: _376  and  _377
REMARK  159  A    between atoms: _381  and  _383
REMARK  160  A    between atoms: _383  and  _384
REMARK  161  A    between atoms: _383  and  _386
REMARK  162  A    between atoms: _386  and  _387
REMARK  163  A    between atoms: _387  and  _388
REMARK  164  A    between atoms: _390  and  _392
REMARK  165  A    between atoms: _392  and  _393
REMARK  166  A    between atoms: _392  and  _395
REMARK  167  A    between atoms: _395  and  _396
REMARK  168  A    between atoms: _399  and  _401
REMARK  169  A    between atoms: _401  and  _402
REMARK  170  A    between atoms: _404  and  _406
REMARK  171  A    between atoms: _406  and  _407
REMARK  172  A    between atoms: _409  and  _411
REMARK  173  A    between atoms: _411  and  _412
REMARK  174  A    between atoms: _411  and  _414
REMARK  175  A    between atoms: _414  and  _415
REMARK  176  A    between atoms: _418  and  _420
REMARK  177  A    between atoms: _420  and  _421
REMARK  178  A    between atoms: _423  and  _425
REMARK  179  A    between atoms: _425  and  _426
REMARK  180  A    between atoms: _428  and  _430
REMARK  181  A    between atoms: _430  and  _431
REMARK  182  A    between atoms: _430  and  _433
REMARK  183  A    between atoms: _433  and  _434
REMARK  184  A    between atoms: _437  and  _439
REMARK  185  A    between atoms: _439  and  _440
REMARK  186  A    between atoms: _439  and  _442
REMARK  187  A    between atoms: _445  and  _447
REMARK  188  A    between atoms: _447  and  _448
REMARK  189  A    between atoms: _447  and  _450
REMARK  190  A    between atoms: _450  and  _451
REMARK  191  A    between atoms: _455  and  _456
REMARK  192  A    between atoms: _461  and  _463
REMARK  193  A    between atoms: _463  and  _464
REMARK  194  A    between atoms: _463  and  _466
REMARK  195  A    between atoms: _466  and  _467
REMARK  196  A    between atoms: _471  and  _472
REMARK  197  A    between atoms: _477  and  _479
REMARK  198  A    between atoms: _479  and  _480
REMARK  199  A    between atoms: _479  and  _482
REMARK  200  A    between atoms: _482  and  _483
REMARK  201  A    between atoms: _486  and  _488
REMARK  202  A    between atoms: _488  and  _489
REMARK  203  A    between atoms: _488  and  _491
REMARK  204  A    between atoms: _491  and  _492
REMARK  205  A    between atoms: _497  and  _499
REMARK  206  A    between atoms: _499  and  _500
REMARK  207  A    between atoms: _499  and  _502
REMARK  208  A    between atoms: _505  and  _507
REMARK  209  A    between atoms: _507  and  _508
REMARK  210  A    between atoms: _507  and  _510
REMARK  211  A    between atoms: _510  and  _511
REMARK  212  A    between atoms: _514  and  _516
REMARK  213  A    between atoms: _516  and  _517
REMARK  214  A    between atoms: _519  and  _521
REMARK  215  A    between atoms: _521  and  _522
REMARK  216  A    between atoms: _521  and  _524
REMARK  217  A    between atoms: _524  and  _525
REMARK  218  A    between atoms: _525  and  _526
REMARK  219  A    between atoms: _526  and  _527
REMARK                            x       y       z     vdW  Elec       q    Type
REMARK                         _______ _______ _______ _____ _____    ______ ____
ROOT
ATOM      1  O   HOH     1      -4.055  15.775  19.108  0.00  0.00    +0.000 OA
ENDROOT
TORSDOF 0
REMARK  Name = ../refined-set-2016/3u7s/3u7s_pocket.pdb
REMARK  219 active torsions:
REMARK  status: ('A' for Active; 'I' for Inactive)
REMARK    1  A    between atoms: _1  and  _3
REMARK    2  A    between atoms: _3  and  _4
REMARK    3  A    between atoms: _3  and  _6
REMARK    4  A    between atoms: _6  and  _7
REMARK    5  A    between atoms: _7  and  _8
REMARK    6  A    between atoms: _8  and  _9
REMARK    7  A    between atoms: _18  and  _20
REMARK    8  A    between atoms: _20  and  _21
REMARK    9  A    between atoms: _20  and  _23
REMARK   10  A    between atoms: _23  and  _24
REMARK   11  A    between atoms: _27  and  _29
REMARK   12  A    between atoms: _29  and  _30
REMARK   13  A    between atoms: _29  and  _32
REMARK   14  A    between atoms: _32  and  _33
REMARK   15  A    between atoms: _36  and  _38
REMARK   16  A    between atoms: _38  and  _39
REMARK   17  A    between atoms: _38  and  _41
REMARK   18  A    between atoms: _41  and  _42
REMARK   19  A    between atoms: _45  and  _47
REMARK   20  A    between atoms: _47  and  _48
REMARK   21  A    between atoms: _47  and  _50
REMARK   22  A    between atoms: _50  and  _51
REMARK   23  A    between atoms: _54  and  _56
REMARK   24  A    between atoms: _56  and  _57
REMARK   25  A    between atoms: _59  and  _61
REMARK   26  A    between atoms: _61  and  _62
REMARK   27  A    between atoms: _65  and  _67
REMARK   28  A    between atoms: _67  and  _68
REMARK   29  A    between atoms: _67  and  _70
REMARK   30  A    between atoms: _70  and  _71
REMARK   31  A    between atoms: _74  and  _76
REMARK   32  A    between atoms: _76  and  _77
REMARK   33  A    between atoms: _76  and  _79
REMARK   34  A    between atoms: _79  and  _80
REMARK   35  A    between atoms: _83  and  _85
REMARK   36  A    between atoms: _85  and  _86
REMARK   37  A    between atoms: _85  and  _88
REMARK   38  A    between atoms: _88  and  _89
REMARK   39  A    between atoms: _92  and  _94
REMARK   40  A    between atoms: _94  and  _95
REMARK   41  A    between atoms: _94  and  _97
REMARK   42  A    between atoms: _97  and  _98
REMARK   43  A    between atoms: _101  and  _103
REMARK   44  A    between atoms: _103  and  _104
REMARK   45  A    between atoms: _103  and  _106
REMARK   46  A    between atoms: _106  and  _107
REMARK   47  A    between atoms: _107  and  _108
REMARK   48  A    between atoms: _108  and  _109
REMARK   49  A    between atoms: _109  and  _110
REMARK   50  A    between atoms: _114  and  _116
REMARK   51  A    between atoms: _116  and  _117
REMARK   52  A    between atoms: _116  and  _119
REMARK   53  A    between atoms: _119  and  _120
REMARK   54  A    between atoms: _120  and  _121
REMARK   55  A    between atoms: _125  and  _126
REMARK   56  A    between atoms: _125  and  _128
REMARK   57  A    between atoms: _128  and  _129
REMARK   58  A    between atoms: _132  and  _134
REMARK   59  A    between atoms: _134  and  _135
REMARK   60  A    between atoms: _137  and  _139
REMARK   61  A    between atoms: _139  and  _140
REMARK   62  A    between atoms: _142  and  _144
REMARK   63  A    between atoms: _144  and  _145
REMARK   64  A    between atoms: _144  and  _147
REMARK   65  A    between atoms: _147  and  _148
REMARK   66  A    between atoms: _151  and  _153
REMARK   67  A    between atoms: _153  and  _154
REMARK   68  A    between atoms: _156  and  _158
REMARK   69  A    between atoms: _158  and  _159
REMARK   70  A    between atoms: _161  and  _163
REMARK   71  A    between atoms: _163  and  _164
REMARK   72  A    between atoms: _163  and  _166
REMARK   73  A    between atoms: _166  and  _167
REMARK   74  A    between atoms: _173  and  _175
REMARK   75  A    between atoms: _175  and  _176
REMARK   76  A    between atoms: _175  and  _178
REMARK   77  A    between atoms: _178  and  _179
REMARK   78  A    between atoms: _182  and  _184
REMARK   79  A    between atoms: _184  and  _185
REMARK   80  A    between atoms: _184  and  _187
REMARK   81  A    between atoms: _187  and  _188
REMARK   82  A    between atoms: _192  and  _193
REMARK   83  A    between atoms: _198  and  _200
REMARK   84  A    between atoms: _200  and  _201
REMARK   85  A    between atoms: _200  and  _203
REMARK   86  A    between atoms: _203  and  _204
REMARK   87  A    between atoms: _207  and  _209
REMARK   88  A    between atoms: _209  and  _210
REMARK   89  A    between atoms: _209  and  _212
REMARK   90  A    between atoms: _212  and  _213
REMARK   91  A    between atoms: _218  and  _220
REMARK   92  A    between atoms: _220  and  _221
REMARK   93  A    between atoms: _220  and  _223
REMARK   94  A    between atoms: _226  and  _228
REMARK   95  A    between atoms: _228  and  _229
REMARK   96  A    between atoms: _228  and  _231
REMARK   97  A    between atoms: _231  and  _232
REMARK   98  A    between atoms: _235  and  _237
REMARK   99  A    between atoms: _237  and  _238
REMARK  100  A    between atoms: _240  and  _242
REMARK  101  A    between atoms: _242  and  _243
REMARK  102  A    between atoms: _242  and  _245
REMARK  103  A    between atoms: _245  and  _246
REMARK  104  A    between atoms: _246  and  _247
REMARK  105  A    between atoms: _247  and  _248
REMARK  106  A    between atoms: _257  and  _259
REMARK  107  A    between atoms: _259  and  _260
REMARK  108  A    between atoms: _259  and  _262
REMARK  109  A    between atoms: _262  and  _263
REMARK  110  A    between atoms: _268  and  _270
REMARK  111  A    between atoms: _270  and  _271
REMARK  112  A    between atoms: _270  and  _273
REMARK  113  A    between atoms: _273  and  _274
REMARK  114  A    between atoms: _274  and  _275
REMARK  115  A    between atoms: _275  and  _276
REMARK  116  A    between atoms: _285  and  _287
REMARK  117  A    between atoms: _287  and  _288
REMARK  118  A    between atoms: _287  and  _290
REMARK  119  A    between atoms: _290  and  _291
REMARK  120  A    between atoms: _294  and  _296
REMARK  121  A    between atoms: _296  and  _297
REMARK  122  A    between atoms: _296  and  _299
REMARK  123  A    between atoms: _299  and  _300
REMARK  124  A    between atoms: _303  and  _305
REMARK  125  A    between atoms: _305  and  _306
REMARK  126  A    between atoms: _305  and  _308
REMARK  127  A    between atoms: _308  and  _309
REMARK  128  A    between atoms: _312  and  _314
REMARK  129  A    between atoms: _314  and  _315
REMARK  130  A    between atoms: _314  and  _317
REMARK  131  A    between atoms: _317  and  _318
REMARK  132  A    between atoms: _321  and  _323
REMARK  133  A    between atoms: _323  and  _324
REMARK  134  A    between atoms: _326  and  _328
REMARK  135  A    between atoms: _328  and  _329
REMARK  136  A    between atoms: _332  and  _334
REMARK  137  A    between atoms: _334  and  _335
REMARK  138  A    between atoms: _334  and  _337
REMARK  139  A    between atoms: _337  and  _338
REMARK  140  A    between atoms: _341  and  _343
REMARK  141  A    between atoms: _343  and  _344
REMARK  142  A    between atoms: _343  and  _346
REMARK  143  A    between atoms: _346  and  _347
REMARK  144  A    between atoms: _350  and  _352
REMARK  145  A    between atoms: _352  and  _353
REMARK  146  A    between atoms: _352  and  _355
REMARK  147  A    between atoms: _355  and  _356
REMARK  148  A    between atoms: _359  and  _361
REMARK  149  A    between atoms: _361  and  _362
REMARK  150  A    between atoms: _361  and  _364
REMARK  151  A    between atoms: _364  and  _365
REMARK  152  A    between atoms: _368  and  _370
REMARK  153  A    between atoms: _370  and  _371
REMARK  154  A    between atoms: _370  and  _373
REMARK  155  A    between atoms: _373  and  _374
REMARK  156  A    between atoms: _374  and  _375
REMARK  157  A    between atoms: _375  and  _376
REMARK  158  A    between atoms: _376  and  _377
REMARK  159  A    between atoms: _381  and  _383
REMARK  160  A    between atoms: _383  and  _384
REMARK  161  A    between atoms: _383  and  _386
REMARK  162  A    between atoms: _386  and  _387
REMARK  163  A    between atoms: _387  and  _388
REMARK  164  A    between atoms: _390  and  _392
REMARK  165  A    between atoms: _392  and  _393
REMARK  166  A    between atoms: _392  and  _395
REMARK  167  A    between atoms: _395  and  _396
REMARK  168  A    between atoms: _399  and  _401
REMARK  169  A    between atoms: _401  and  _402
REMARK  170  A    between atoms: _404  and  _406
REMARK  171  A    between atoms: _406  and  _407
REMARK  172  A    between atoms: _409  and  _411
REMARK  173  A    between atoms: _411  and  _412
REMARK  174  A    between atoms: _411  and  _414
REMARK  175  A    between atoms: _414  and  _415
REMARK  176  A    between atoms: _418  and  _420
REMARK  177  A    between atoms: _420  and  _421
REMARK  178  A    between atoms: _423  and  _425
REMARK  179  A    between atoms: _425  and  _426
REMARK  180  A    between atoms: _428  and  _430
REMARK  181  A    between atoms: _430  and  _431
REMARK  182  A    between atoms: _430  and  _433
REMARK  183  A    between atoms: _433  and  _434
REMARK  184  A    between atoms: _437  and  _439
REMARK  185  A    between atoms: _439  and  _440
REMARK  186  A    between atoms: _439  and  _442
REMARK  187  A    between atoms: _445  and  _447
REMARK  188  A    between atoms: _447  and  _448
REMARK  189  A    between atoms: _447  and  _450
REMARK  190  A    between atoms: _450  and  _451
REMARK  191  A    between atoms: _455  and  _456
REMARK  192  A    between atoms: _461  and  _463
REMARK  193  A    between atoms: _463  and  _464
REMARK  194  A    between atoms: _463  and  _466
REMARK  195  A    between atoms: _466  and  _467
REMARK  196  A    between atoms: _471  and  _472
REMARK  197  A    between atoms: _477  and  _479
REMARK  198  A    between atoms: _479  and  _480
REMARK  199  A    between atoms: _479  and  _482
REMARK  200  A    between atoms: _482  and  _483
REMARK  201  A    between atoms: _486  and  _488
REMARK  202  A    between atoms: _488  and  _489
REMARK  203  A    between atoms: _488  and  _491
REMARK  204  A    between atoms: _491  and  _492
REMARK  205  A    between atoms: _497  and  _499
REMARK  206  A    between atoms: _499  and  _500
REMARK  207  A    between atoms: _499  and  _502
REMARK  208  A    between atoms: _505  and  _507
REMARK  209  A    between atoms: _507  and  _508
REMARK  210  A    between atoms: _507  and  _510
REMARK  211  A    between atoms: _510  and  _511
REMARK  212  A    between atoms: _514  and  _516
REMARK  213  A    between atoms: _516  and  _517
REMARK  214  A    between atoms: _519  and  _521
REMARK  215  A    between atoms: _521  and  _522
REMARK  216  A    between atoms: _521  and  _524
REMARK  217  A    between atoms: _524  and  _525
REMARK  218  A    between atoms: _525  and  _526
REMARK  219  A    between atoms: _526  and  _527
REMARK                            x       y       z     vdW  Elec       q    Type
REMARK                         _______ _______ _______ _____ _____    ______ ____
ROOT
ATOM      1  O   HOH     1     -11.551  11.348  35.212  0.00  0.00    +0.000 OA
ENDROOT
TORSDOF 0
REMARK  Name = ../refined-set-2016/3u7s/3u7s_pocket.pdb
REMARK  219 active torsions:
REMARK  status: ('A' for Active; 'I' for Inactive)
REMARK    1  A    between atoms: _1  and  _3
REMARK    2  A    between atoms: _3  and  _4
REMARK    3  A    between atoms: _3  and  _6
REMARK    4  A    between atoms: _6  and  _7
REMARK    5  A    between atoms: _7  and  _8
REMARK    6  A    between atoms: _8  and  _9
REMARK    7  A    between atoms: _18  and  _20
REMARK    8  A    between atoms: _20  and  _21
REMARK    9  A    between atoms: _20  and  _23
REMARK   10  A    between atoms: _23  and  _24
REMARK   11  A    between atoms: _27  and  _29
REMARK   12  A    between atoms: _29  and  _30
REMARK   13  A    between atoms: _29  and  _32
REMARK   14  A    between atoms: _32  and  _33
REMARK   15  A    between atoms: _36  and  _38
REMARK   16  A    between atoms: _38  and  _39
REMARK   17  A    between atoms: _38  and  _41
REMARK   18  A    between atoms: _41  and  _42
REMARK   19  A    between atoms: _45  and  _47
REMARK   20  A    between atoms: _47  and  _48
REMARK   21  A    between atoms: _47  and  _50
REMARK   22  A    between atoms: _50  and  _51
REMARK   23  A    between atoms: _54  and  _56
REMARK   24  A    between atoms: _56  and  _57
REMARK   25  A    between atoms: _59  and  _61
REMARK   26  A    between atoms: _61  and  _62
REMARK   27  A    between atoms: _65  and  _67
REMARK   28  A    between atoms: _67  and  _68
REMARK   29  A    between atoms: _67  and  _70
REMARK   30  A    between atoms: _70  and  _71
REMARK   31  A    between atoms: _74  and  _76
REMARK   32  A    between atoms: _76  and  _77
REMARK   33  A    between atoms: _76  and  _79
REMARK   34  A    between atoms: _79  and  _80
REMARK   35  A    between atoms: _83  and  _85
REMARK   36  A    between atoms: _85  and  _86
REMARK   37  A    between atoms: _85  and  _88
REMARK   38  A    between atoms: _88  and  _89
REMARK   39  A    between atoms: _92  and  _94
REMARK   40  A    between atoms: _94  and  _95
REMARK   41  A    between atoms: _94  and  _97
REMARK   42  A    between atoms: _97  and  _98
REMARK   43  A    between atoms: _101  and  _103
REMARK   44  A    between atoms: _103  and  _104
REMARK   45  A    between atoms: _103  and  _106
REMARK   46  A    between atoms: _106  and  _107
REMARK   47  A    between atoms: _107  and  _108
REMARK   48  A    between atoms: _108  and  _109
REMARK   49  A    between atoms: _109  and  _110
REMARK   50  A    between atoms: _114  and  _116
REMARK   51  A    between atoms: _116  and  _117
REMARK   52  A    between atoms: _116  and  _119
REMARK   53  A    between atoms: _119  and  _120
REMARK   54  A    between atoms: _120  and  _121
REMARK   55  A    between atoms: _125  and  _126
REMARK   56  A    between atoms: _125  and  _128
REMARK   57  A    between atoms: _128  and  _129
REMARK   58  A    between atoms: _132  and  _134
REMARK   59  A    between atoms: _134  and  _135
REMARK   60  A    between atoms: _137  and  _139
REMARK   61  A    between atoms: _139  and  _140
REMARK   62  A    between atoms: _142  and  _144
REMARK   63  A    between atoms: _144  and  _145
REMARK   64  A    between atoms: _144  and  _147
REMARK   65  A    between atoms: _147  and  _148
REMARK   66  A    between atoms: _151  and  _153
REMARK   67  A    between atoms: _153  and  _154
REMARK   68  A    between atoms: _156  and  _158
REMARK   69  A    between atoms: _158  and  _159
REMARK   70  A    between atoms: _161  and  _163
REMARK   71  A    between atoms: _163  and  _164
REMARK   72  A    between atoms: _163  and  _166
REMARK   73  A    between atoms: _166  and  _167
REMARK   74  A    between atoms: _173  and  _175
REMARK   75  A    between atoms: _175  and  _176
REMARK   76  A    between atoms: _175  and  _178
REMARK   77  A    between atoms: _178  and  _179
REMARK   78  A    between atoms: _182  and  _184
REMARK   79  A    between atoms: _184  and  _185
REMARK   80  A    between atoms: _184  and  _187
REMARK   81  A    between atoms: _187  and  _188
REMARK   82  A    between atoms: _192  and  _193
REMARK   83  A    between atoms: _198  and  _200
REMARK   84  A    between atoms: _200  and  _201
REMARK   85  A    between atoms: _200  and  _203
REMARK   86  A    between atoms: _203  and  _204
REMARK   87  A    between atoms: _207  and  _209
REMARK   88  A    between atoms: _209  and  _210
REMARK   89  A    between atoms: _209  and  _212
REMARK   90  A    between atoms: _212  and  _213
REMARK   91  A    between atoms: _218  and  _220
REMARK   92  A    between atoms: _220  and  _221
REMARK   93  A    between atoms: _220  and  _223
REMARK   94  A    between atoms: _226  and  _228
REMARK   95  A    between atoms: _228  and  _229
REMARK   96  A    between atoms: _228  and  _231
REMARK   97  A    between atoms: _231  and  _232
REMARK   98  A    between atoms: _235  and  _237
REMARK   99  A    between atoms: _237  and  _238
REMARK  100  A    between atoms: _240  and  _242
REMARK  101  A    between atoms: _242  and  _243
REMARK  102  A    between atoms: _242  and  _245
REMARK  103  A    between atoms: _245  and  _246
REMARK  104  A    between atoms: _246  and  _247
REMARK  105  A    between atoms: _247  and  _248
REMARK  106  A    between atoms: _257  and  _259
REMARK  107  A    between atoms: _259  and  _260
REMARK  108  A    between atoms: _259  and  _262
REMARK  109  A    between atoms: _262  and  _263
REMARK  110  A    between atoms: _268  and  _270
REMARK  111  A    between atoms: _270  and  _271
REMARK  112  A    between atoms: _270  and  _273
REMARK  113  A    between atoms: _273  and  _274
REMARK  114  A    between atoms: _274  and  _275
REMARK  115  A    between atoms: _275  and  _276
REMARK  116  A    between atoms: _285  and  _287
REMARK  117  A    between atoms: _287  and  _288
REMARK  118  A    between atoms: _287  and  _290
REMARK  119  A    between atoms: _290  and  _291
REMARK  120  A    between atoms: _294  and  _296
REMARK  121  A    between atoms: _296  and  _297
REMARK  122  A    between atoms: _296  and  _299
REMARK  123  A    between atoms: _299  and  _300
REMARK  124  A    between atoms: _303  and  _305
REMARK  125  A    between atoms: _305  and  _306
REMARK  126  A    between atoms: _305  and  _308
REMARK  127  A    between atoms: _308  and  _309
REMARK  128  A    between atoms: _312  and  _314
REMARK  129  A    between atoms: _314  and  _315
REMARK  130  A    between atoms: _314  and  _317
REMARK  131  A    between atoms: _317  and  _318
REMARK  132  A    between atoms: _321  and  _323
REMARK  133  A    between atoms: _323  and  _324
REMARK  134  A    between atoms: _326  and  _328
REMARK  135  A    between atoms: _328  and  _329
REMARK  136  A    between atoms: _332  and  _334
REMARK  137  A    between atoms: _334  and  _335
REMARK  138  A    between atoms: _334  and  _337
REMARK  139  A    between atoms: _337  and  _338
REMARK  140  A    between atoms: _341  and  _343
REMARK  141  A    between atoms: _343  and  _344
REMARK  142  A    between atoms: _343  and  _346
REMARK  143  A    between atoms: _346  and  _347
REMARK  144  A    between atoms: _350  and  _352
REMARK  145  A    between atoms: _352  and  _353
REMARK  146  A    between atoms: _352  and  _355
REMARK  147  A    between atoms: _355  and  _356
REMARK  148  A    between atoms: _359  and  _361
REMARK  149  A    between atoms: _361  and  _362
REMARK  150  A    between atoms: _361  and  _364
REMARK  151  A    between atoms: _364  and  _365
REMARK  152  A    between atoms: _368  and  _370
REMARK  153  A    between atoms: _370  and  _371
REMARK  154  A    between atoms: _370  and  _373
REMARK  155  A    between atoms: _373  and  _374
REMARK  156  A    between atoms: _374  and  _375
REMARK  157  A    between atoms: _375  and  _376
REMARK  158  A    between atoms: _376  and  _377
REMARK  159  A    between atoms: _381  and  _383
REMARK  160  A    between atoms: _383  and  _384
REMARK  161  A    between atoms: _383  and  _386
REMARK  162  A    between atoms: _386  and  _387
REMARK  163  A    between atoms: _387  and  _388
REMARK  164  A    between atoms: _390  and  _392
REMARK  165  A    between atoms: _392  and  _393
REMARK  166  A    between atoms: _392  and  _395
REMARK  167  A    between atoms: _395  and  _396
REMARK  168  A    between atoms: _399  and  _401
REMARK  169  A    between atoms: _401  and  _402
REMARK  170  A    between atoms: _404  and  _406
REMARK  171  A    between atoms: _406  and  _407
REMARK  172  A    between atoms: _409  and  _411
REMARK  173  A    between atoms: _411  and  _412
REMARK  174  A    between atoms: _411  and  _414
REMARK  175  A    between atoms: _414  and  _415
REMARK  176  A    between atoms: _418  and  _420
REMARK  177  A    between atoms: _420  and  _421
REMARK  178  A    between atoms: _423  and  _425
REMARK  179  A    between atoms: _425  and  _426
REMARK  180  A    between atoms: _428  and  _430
REMARK  181  A    between atoms: _430  and  _431
REMARK  182  A    between atoms: _430  and  _433
REMARK  183  A    between atoms: _433  and  _434
REMARK  184  A    between atoms: _437  and  _439
REMARK  185  A    between atoms: _439  and  _440
REMARK  186  A    between atoms: _439  and  _442
REMARK  187  A    between atoms: _445  and  _447
REMARK  188  A    between atoms: _447  and  _448
REMARK  189  A    between atoms: _447  and  _450
REMARK  190  A    between atoms: _450  and  _451
REMARK  191  A    between atoms: _455  and  _456
REMARK  192  A    between atoms: _461  and  _463
REMARK  193  A    between atoms: _463  and  _464
REMARK  194  A    between atoms: _463  and  _466
REMARK  195  A    between atoms: _466  and  _467
REMARK  196  A    between atoms: _471  and  _472
REMARK  197  A    between atoms: _477  and  _479
REMARK  198  A    between atoms: _479  and  _480
REMARK  199  A    between atoms: _479  and  _482
REMARK  200  A    between atoms: _482  and  _483
REMARK  201  A    between atoms: _486  and  _488
REMARK  202  A    between atoms: _488  and  _489
REMARK  203  A    between atoms: _488  and  _491
REMARK  204  A    between atoms: _491  and  _492
REMARK  205  A    between atoms: _497  and  _499
REMARK  206  A    between atoms: _499  and  _500
REMARK  207  A    between atoms: _499  and  _502
REMARK  208  A    between atoms: _505  and  _507
REMARK  209  A    between atoms: _507  and  _508
REMARK  210  A    between atoms: _507  and  _510
REMARK  211  A    between atoms: _510  and  _511
REMARK  212  A    between atoms: _514  and  _516
REMARK  213  A    between atoms: _516  and  _517
REMARK  214  A    between atoms: _519  and  _521
REMARK  215  A    between atoms: _521  and  _522
REMARK  216  A    between atoms: _521  and  _524
REMARK  217  A    between atoms: _524  and  _525
REMARK  218  A    between atoms: _525  and  _526
REMARK  219  A    between atoms: _526  and  _527
REMARK                            x       y       z     vdW  Elec       q    Type
REMARK                         _______ _______ _______ _____ _____    ______ ____
ROOT
ATOM      1  O   HOH     1       0.300  12.135  25.477  0.00  0.00    +0.000 OA
ENDROOT
TORSDOF 0
REMARK  Name = ../refined-set-2016/3u7s/3u7s_pocket.pdb
REMARK  219 active torsions:
REMARK  status: ('A' for Active; 'I' for Inactive)
REMARK    1  A    between atoms: _1  and  _3
REMARK    2  A    between atoms: _3  and  _4
REMARK    3  A    between atoms: _3  and  _6
REMARK    4  A    between atoms: _6  and  _7
REMARK    5  A    between atoms: _7  and  _8
REMARK    6  A    between atoms: _8  and  _9
REMARK    7  A    between atoms: _18  and  _20
REMARK    8  A    between atoms: _20  and  _21
REMARK    9  A    between atoms: _20  and  _23
REMARK   10  A    between atoms: _23  and  _24
REMARK   11  A    between atoms: _27  and  _29
REMARK   12  A    between atoms: _29  and  _30
REMARK   13  A    between atoms: _29  and  _32
REMARK   14  A    between atoms: _32  and  _33
REMARK   15  A    between atoms: _36  and  _38
REMARK   16  A    between atoms: _38  and  _39
REMARK   17  A    between atoms: _38  and  _41
REMARK   18  A    between atoms: _41  and  _42
REMARK   19  A    between atoms: _45  and  _47
REMARK   20  A    between atoms: _47  and  _48
REMARK   21  A    between atoms: _47  and  _50
REMARK   22  A    between atoms: _50  and  _51
REMARK   23  A    between atoms: _54  and  _56
REMARK   24  A    between atoms: _56  and  _57
REMARK   25  A    between atoms: _59  and  _61
REMARK   26  A    between atoms: _61  and  _62
REMARK   27  A    between atoms: _65  and  _67
REMARK   28  A    between atoms: _67  and  _68
REMARK   29  A    between atoms: _67  and  _70
REMARK   30  A    between atoms: _70  and  _71
REMARK   31  A    between atoms: _74  and  _76
REMARK   32  A    between atoms: _76  and  _77
REMARK   33  A    between atoms: _76  and  _79
REMARK   34  A    between atoms: _79  and  _80
REMARK   35  A    between atoms: _83  and  _85
REMARK   36  A    between atoms: _85  and  _86
REMARK   37  A    between atoms: _85  and  _88
REMARK   38  A    between atoms: _88  and  _89
REMARK   39  A    between atoms: _92  and  _94
REMARK   40  A    between atoms: _94  and  _95
REMARK   41  A    between atoms: _94  and  _97
REMARK   42  A    between atoms: _97  and  _98
REMARK   43  A    between atoms: _101  and  _103
REMARK   44  A    between atoms: _103  and  _104
REMARK   45  A    between atoms: _103  and  _106
REMARK   46  A    between atoms: _106  and  _107
REMARK   47  A    between atoms: _107  and  _108
REMARK   48  A    between atoms: _108  and  _109
REMARK   49  A    between atoms: _109  and  _110
REMARK   50  A    between atoms: _114  and  _116
REMARK   51  A    between atoms: _116  and  _117
REMARK   52  A    between atoms: _116  and  _119
REMARK   53  A    between atoms: _119  and  _120
REMARK   54  A    between atoms: _120  and  _121
REMARK   55  A    between atoms: _125  and  _126
REMARK   56  A    between atoms: _125  and  _128
REMARK   57  A    between atoms: _128  and  _129
REMARK   58  A    between atoms: _132  and  _134
REMARK   59  A    between atoms: _134  and  _135
REMARK   60  A    between atoms: _137  and  _139
REMARK   61  A    between atoms: _139  and  _140
REMARK   62  A    between atoms: _142  and  _144
REMARK   63  A    between atoms: _144  and  _145
REMARK   64  A    between atoms: _144  and  _147
REMARK   65  A    between atoms: _147  and  _148
REMARK   66  A    between atoms: _151  and  _153
REMARK   67  A    between atoms: _153  and  _154
REMARK   68  A    between atoms: _156  and  _158
REMARK   69  A    between atoms: _158  and  _159
REMARK   70  A    between atoms: _161  and  _163
REMARK   71  A    between atoms: _163  and  _164
REMARK   72  A    between atoms: _163  and  _166
REMARK   73  A    between atoms: _166  and  _167
REMARK   74  A    between atoms: _173  and  _175
REMARK   75  A    between atoms: _175  and  _176
REMARK   76  A    between atoms: _175  and  _178
REMARK   77  A    between atoms: _178  and  _179
REMARK   78  A    between atoms: _182  and  _184
REMARK   79  A    between atoms: _184  and  _185
REMARK   80  A    between atoms: _184  and  _187
REMARK   81  A    between atoms: _187  and  _188
REMARK   82  A    between atoms: _192  and  _193
REMARK   83  A    between atoms: _198  and  _200
REMARK   84  A    between atoms: _200  and  _201
REMARK   85  A    between atoms: _200  and  _203
REMARK   86  A    between atoms: _203  and  _204
REMARK   87  A    between atoms: _207  and  _209
REMARK   88  A    between atoms: _209  and  _210
REMARK   89  A    between atoms: _209  and  _212
REMARK   90  A    between atoms: _212  and  _213
REMARK   91  A    between atoms: _218  and  _220
REMARK   92  A    between atoms: _220  and  _221
REMARK   93  A    between atoms: _220  and  _223
REMARK   94  A    between atoms: _226  and  _228
REMARK   95  A    between atoms: _228  and  _229
REMARK   96  A    between atoms: _228  and  _231
REMARK   97  A    between atoms: _231  and  _232
REMARK   98  A    between atoms: _235  and  _237
REMARK   99  A    between atoms: _237  and  _238
REMARK  100  A    between atoms: _240  and  _242
REMARK  101  A    between atoms: _242  and  _243
REMARK  102  A    between atoms: _242  and  _245
REMARK  103  A    between atoms: _245  and  _246
REMARK  104  A    between atoms: _246  and  _247
REMARK  105  A    between atoms: _247  and  _248
REMARK  106  A    between atoms: _257  and  _259
REMARK  107  A    between atoms: _259  and  _260
REMARK  108  A    between atoms: _259  and  _262
REMARK  109  A    between atoms: _262  and  _263
REMARK  110  A    between atoms: _268  and  _270
REMARK  111  A    between atoms: _270  and  _271
REMARK  112  A    between atoms: _270  and  _273
REMARK  113  A    between atoms: _273  and  _274
REMARK  114  A    between atoms: _274  and  _275
REMARK  115  A    between atoms: _275  and  _276
REMARK  116  A    between atoms: _285  and  _287
REMARK  117  A    between atoms: _287  and  _288
REMARK  118  A    between atoms: _287  and  _290
REMARK  119  A    between atoms: _290  and  _291
REMARK  120  A    between atoms: _294  and  _296
REMARK  121  A    between atoms: _296  and  _297
REMARK  122  A    between atoms: _296  and  _299
REMARK  123  A    between atoms: _299  and  _300
REMARK  124  A    between atoms: _303  and  _305
REMARK  125  A    between atoms: _305  and  _306
REMARK  126  A    between atoms: _305  and  _308
REMARK  127  A    between atoms: _308  and  _309
REMARK  128  A    between atoms: _312  and  _314
REMARK  129  A    between atoms: _314  and  _315
REMARK  130  A    between atoms: _314  and  _317
REMARK  131  A    between atoms: _317  and  _318
REMARK  132  A    between atoms: _321  and  _323
REMARK  133  A    between atoms: _323  and  _324
REMARK  134  A    between atoms: _326  and  _328
REMARK  135  A    between atoms: _328  and  _329
REMARK  136  A    between atoms: _332  and  _334
REMARK  137  A    between atoms: _334  and  _335
REMARK  138  A    between atoms: _334  and  _337
REMARK  139  A    between atoms: _337  and  _338
REMARK  140  A    between atoms: _341  and  _343
REMARK  141  A    between atoms: _343  and  _344
REMARK  142  A    between atoms: _343  and  _346
REMARK  143  A    between atoms: _346  and  _347
REMARK  144  A    between atoms: _350  and  _352
REMARK  145  A    between atoms: _352  and  _353
REMARK  146  A    between atoms: _352  and  _355
REMARK  147  A    between atoms: _355  and  _356
REMARK  148  A    between atoms: _359  and  _361
REMARK  149  A    between atoms: _361  and  _362
REMARK  150  A    between atoms: _361  and  _364
REMARK  151  A    between atoms: _364  and  _365
REMARK  152  A    between atoms: _368  and  _370
REMARK  153  A    between atoms: _370  and  _371
REMARK  154  A    between atoms: _370  and  _373
REMARK  155  A    between atoms: _373  and  _374
REMARK  156  A    between atoms: _374  and  _375
REMARK  157  A    between atoms: _375  and  _376
REMARK  158  A    between atoms: _376  and  _377
REMARK  159  A    between atoms: _381  and  _383
REMARK  160  A    between atoms: _383  and  _384
REMARK  161  A    between atoms: _383  and  _386
REMARK  162  A    between atoms: _386  and  _387
REMARK  163  A    between atoms: _387  and  _388
REMARK  164  A    between atoms: _390  and  _392
REMARK  165  A    between atoms: _392  and  _393
REMARK  166  A    between atoms: _392  and  _395
REMARK  167  A    between atoms: _395  and  _396
REMARK  168  A    between atoms: _399  and  _401
REMARK  169  A    between atoms: _401  and  _402
REMARK  170  A    between atoms: _404  and  _406
REMARK  171  A    between atoms: _406  and  _407
REMARK  172  A    between atoms: _409  and  _411
REMARK  173  A    between atoms: _411  and  _412
REMARK  174  A    between atoms: _411  and  _414
REMARK  175  A    between atoms: _414  and  _415
REMARK  176  A    between atoms: _418  and  _420
REMARK  177  A    between atoms: _420  and  _421
REMARK  178  A    between atoms: _423  and  _425
REMARK  179  A    between atoms: _425  and  _426
REMARK  180  A    between atoms: _428  and  _430
REMARK  181  A    between atoms: _430  and  _431
REMARK  182  A    between atoms: _430  and  _433
REMARK  183  A    between atoms: _433  and  _434
REMARK  184  A    between atoms: _437  and  _439
REMARK  185  A    between atoms: _439  and  _440
REMARK  186  A    between atoms: _439  and  _442
REMARK  187  A    between atoms: _445  and  _447
REMARK  188  A    between atoms: _447  and  _448
REMARK  189  A    between atoms: _447  and  _450
REMARK  190  A    between atoms: _450  and  _451
REMARK  191  A    between atoms: _455  and  _456
REMARK  192  A    between atoms: _461  and  _463
REMARK  193  A    between atoms: _463  and  _464
REMARK  194  A    between atoms: _463  and  _466
REMARK  195  A    between atoms: _466  and  _467
REMARK  196  A    between atoms: _471  and  _472
REMARK  197  A    between atoms: _477  and  _479
REMARK  198  A    between atoms: _479  and  _480
REMARK  199  A    between atoms: _479  and  _482
REMARK  200  A    between atoms: _482  and  _483
REMARK  201  A    between atoms: _486  and  _488
REMARK  202  A    between atoms: _488  and  _489
REMARK  203  A    between atoms: _488  and  _491
REMARK  204  A    between atoms: _491  and  _492
REMARK  205  A    between atoms: _497  and  _499
REMARK  206  A    between atoms: _499  and  _500
REMARK  207  A    between atoms: _499  and  _502
REMARK  208  A    between atoms: _505  and  _507
REMARK  209  A    between atoms: _507  and  _508
REMARK  210  A    between atoms: _507  and  _510
REMARK  211  A    between atoms: _510  and  _511
REMARK  212  A    between atoms: _514  and  _516
REMARK  213  A    between atoms: _516  and  _517
REMARK  214  A    between atoms: _519  and  _521
REMARK  215  A    between atoms: _521  and  _522
REMARK  216  A    between atoms: _521  and  _524
REMARK  217  A    between atoms: _524  and  _525
REMARK  218  A    between atoms: _525  and  _526
REMARK  219  A    between atoms: _526  and  _527
REMARK                            x       y       z     vdW  Elec       q    Type
REMARK                         _______ _______ _______ _____ _____    ______ ____
ROOT
ATOM      1  O   HOH     1      -5.603  17.052  16.549  0.00  0.00    +0.000 OA
ENDROOT
TORSDOF 0
REMARK  Name = ../refined-set-2016/3u7s/3u7s_pocket.pdb
REMARK  219 active torsions:
REMARK  status: ('A' for Active; 'I' for Inactive)
REMARK    1  A    between atoms: _1  and  _3
REMARK    2  A    between atoms: _3  and  _4
REMARK    3  A    between atoms: _3  and  _6
REMARK    4  A    between atoms: _6  and  _7
REMARK    5  A    between atoms: _7  and  _8
REMARK    6  A    between atoms: _8  and  _9
REMARK    7  A    between atoms: _18  and  _20
REMARK    8  A    between atoms: _20  and  _21
REMARK    9  A    between atoms: _20  and  _23
REMARK   10  A    between atoms: _23  and  _24
REMARK   11  A    between atoms: _27  and  _29
REMARK   12  A    between atoms: _29  and  _30
REMARK   13  A    between atoms: _29  and  _32
REMARK   14  A    between atoms: _32  and  _33
REMARK   15  A    between atoms: _36  and  _38
REMARK   16  A    between atoms: _38  and  _39
REMARK   17  A    between atoms: _38  and  _41
REMARK   18  A    between atoms: _41  and  _42
REMARK   19  A    between atoms: _45  and  _47
REMARK   20  A    between atoms: _47  and  _48
REMARK   21  A    between atoms: _47  and  _50
REMARK   22  A    between atoms: _50  and  _51
REMARK   23  A    between atoms: _54  and  _56
REMARK   24  A    between atoms: _56  and  _57
REMARK   25  A    between atoms: _59  and  _61
REMARK   26  A    between atoms: _61  and  _62
REMARK   27  A    between atoms: _65  and  _67
REMARK   28  A    between atoms: _67  and  _68
REMARK   29  A    between atoms: _67  and  _70
REMARK   30  A    between atoms: _70  and  _71
REMARK   31  A    between atoms: _74  and  _76
REMARK   32  A    between atoms: _76  and  _77
REMARK   33  A    between atoms: _76  and  _79
REMARK   34  A    between atoms: _79  and  _80
REMARK   35  A    between atoms: _83  and  _85
REMARK   36  A    between atoms: _85  and  _86
REMARK   37  A    between atoms: _85  and  _88
REMARK   38  A    between atoms: _88  and  _89
REMARK   39  A    between atoms: _92  and  _94
REMARK   40  A    between atoms: _94  and  _95
REMARK   41  A    between atoms: _94  and  _97
REMARK   42  A    between atoms: _97  and  _98
REMARK   43  A    between atoms: _101  and  _103
REMARK   44  A    between atoms: _103  and  _104
REMARK   45  A    between atoms: _103  and  _106
REMARK   46  A    between atoms: _106  and  _107
REMARK   47  A    between atoms: _107  and  _108
REMARK   48  A    between atoms: _108  and  _109
REMARK   49  A    between atoms: _109  and  _110
REMARK   50  A    between atoms: _114  and  _116
REMARK   51  A    between atoms: _116  and  _117
REMARK   52  A    between atoms: _116  and  _119
REMARK   53  A    between atoms: _119  and  _120
REMARK   54  A    between atoms: _120  and  _121
REMARK   55  A    between atoms: _125  and  _126
REMARK   56  A    between atoms: _125  and  _128
REMARK   57  A    between atoms: _128  and  _129
REMARK   58  A    between atoms: _132  and  _134
REMARK   59  A    between atoms: _134  and  _135
REMARK   60  A    between atoms: _137  and  _139
REMARK   61  A    between atoms: _139  and  _140
REMARK   62  A    between atoms: _142  and  _144
REMARK   63  A    between atoms: _144  and  _145
REMARK   64  A    between atoms: _144  and  _147
REMARK   65  A    between atoms: _147  and  _148
REMARK   66  A    between atoms: _151  and  _153
REMARK   67  A    between atoms: _153  and  _154
REMARK   68  A    between atoms: _156  and  _158
REMARK   69  A    between atoms: _158  and  _159
REMARK   70  A    between atoms: _161  and  _163
REMARK   71  A    between atoms: _163  and  _164
REMARK   72  A    between atoms: _163  and  _166
REMARK   73  A    between atoms: _166  and  _167
REMARK   74  A    between atoms: _173  and  _175
REMARK   75  A    between atoms: _175  and  _176
REMARK   76  A    between atoms: _175  and  _178
REMARK   77  A    between atoms: _178  and  _179
REMARK   78  A    between atoms: _182  and  _184
REMARK   79  A    between atoms: _184  and  _185
REMARK   80  A    between atoms: _184  and  _187
REMARK   81  A    between atoms: _187  and  _188
REMARK   82  A    between atoms: _192  and  _193
REMARK   83  A    between atoms: _198  and  _200
REMARK   84  A    between atoms: _200  and  _201
REMARK   85  A    between atoms: _200  and  _203
REMARK   86  A    between atoms: _203  and  _204
REMARK   87  A    between atoms: _207  and  _209
REMARK   88  A    between atoms: _209  and  _210
REMARK   89  A    between atoms: _209  and  _212
REMARK   90  A    between atoms: _212  and  _213
REMARK   91  A    between atoms: _218  and  _220
REMARK   92  A    between atoms: _220  and  _221
REMARK   93  A    between atoms: _220  and  _223
REMARK   94  A    between atoms: _226  and  _228
REMARK   95  A    between atoms: _228  and  _229
REMARK   96  A    between atoms: _228  and  _231
REMARK   97  A    between atoms: _231  and  _232
REMARK   98  A    between atoms: _235  and  _237
REMARK   99  A    between atoms: _237  and  _238
REMARK  100  A    between atoms: _240  and  _242
REMARK  101  A    between atoms: _242  and  _243
REMARK  102  A    between atoms: _242  and  _245
REMARK  103  A    between atoms: _245  and  _246
REMARK  104  A    between atoms: _246  and  _247
REMARK  105  A    between atoms: _247  and  _248
REMARK  106  A    between atoms: _257  and  _259
REMARK  107  A    between atoms: _259  and  _260
REMARK  108  A    between atoms: _259  and  _262
REMARK  109  A    between atoms: _262  and  _263
REMARK  110  A    between atoms: _268  and  _270
REMARK  111  A    between atoms: _270  and  _271
REMARK  112  A    between atoms: _270  and  _273
REMARK  113  A    between atoms: _273  and  _274
REMARK  114  A    between atoms: _274  and  _275
REMARK  115  A    between atoms: _275  and  _276
REMARK  116  A    between atoms: _285  and  _287
REMARK  117  A    between atoms: _287  and  _288
REMARK  118  A    between atoms: _287  and  _290
REMARK  119  A    between atoms: _290  and  _291
REMARK  120  A    between atoms: _294  and  _296
REMARK  121  A    between atoms: _296  and  _297
REMARK  122  A    between atoms: _296  and  _299
REMARK  123  A    between atoms: _299  and  _300
REMARK  124  A    between atoms: _303  and  _305
REMARK  125  A    between atoms: _305  and  _306
REMARK  126  A    between atoms: _305  and  _308
REMARK  127  A    between atoms: _308  and  _309
REMARK  128  A    between atoms: _312  and  _314
REMARK  129  A    between atoms: _314  and  _315
REMARK  130  A    between atoms: _314  and  _317
REMARK  131  A    between atoms: _317  and  _318
REMARK  132  A    between atoms: _321  and  _323
REMARK  133  A    between atoms: _323  and  _324
REMARK  134  A    between atoms: _326  and  _328
REMARK  135  A    between atoms: _328  and  _329
REMARK  136  A    between atoms: _332  and  _334
REMARK  137  A    between atoms: _334  and  _335
REMARK  138  A    between atoms: _334  and  _337
REMARK  139  A    between atoms: _337  and  _338
REMARK  140  A    between atoms: _341  and  _343
REMARK  141  A    between atoms: _343  and  _344
REMARK  142  A    between atoms: _343  and  _346
REMARK  143  A    between atoms: _346  and  _347
REMARK  144  A    between atoms: _350  and  _352
REMARK  145  A    between atoms: _352  and  _353
REMARK  146  A    between atoms: _352  and  _355
REMARK  147  A    between atoms: _355  and  _356
REMARK  148  A    between atoms: _359  and  _361
REMARK  149  A    between atoms: _361  and  _362
REMARK  150  A    between atoms: _361  and  _364
REMARK  151  A    between atoms: _364  and  _365
REMARK  152  A    between atoms: _368  and  _370
REMARK  153  A    between atoms: _370  and  _371
REMARK  154  A    between atoms: _370  and  _373
REMARK  155  A    between atoms: _373  and  _374
REMARK  156  A    between atoms: _374  and  _375
REMARK  157  A    between atoms: _375  and  _376
REMARK  158  A    between atoms: _376  and  _377
REMARK  159  A    between atoms: _381  and  _383
REMARK  160  A    between atoms: _383  and  _384
REMARK  161  A    between atoms: _383  and  _386
REMARK  162  A    between atoms: _386  and  _387
REMARK  163  A    between atoms: _387  and  _388
REMARK  164  A    between atoms: _390  and  _392
REMARK  165  A    between atoms: _392  and  _393
REMARK  166  A    between atoms: _392  and  _395
REMARK  167  A    between atoms: _395  and  _396
REMARK  168  A    between atoms: _399  and  _401
REMARK  169  A    between atoms: _401  and  _402
REMARK  170  A    between atoms: _404  and  _406
REMARK  171  A    between atoms: _406  and  _407
REMARK  172  A    between atoms: _409  and  _411
REMARK  173  A    between atoms: _411  and  _412
REMARK  174  A    between atoms: _411  and  _414
REMARK  175  A    between atoms: _414  and  _415
REMARK  176  A    between atoms: _418  and  _420
REMARK  177  A    between atoms: _420  and  _421
REMARK  178  A    between atoms: _423  and  _425
REMARK  179  A    between atoms: _425  and  _426
REMARK  180  A    between atoms: _428  and  _430
REMARK  181  A    between atoms: _430  and  _431
REMARK  182  A    between atoms: _430  and  _433
REMARK  183  A    between atoms: _433  and  _434
REMARK  184  A    between atoms: _437  and  _439
REMARK  185  A    between atoms: _439  and  _440
REMARK  186  A    between atoms: _439  and  _442
REMARK  187  A    between atoms: _445  and  _447
REMARK  188  A    between atoms: _447  and  _448
REMARK  189  A    between atoms: _447  and  _450
REMARK  190  A    between atoms: _450  and  _451
REMARK  191  A    between atoms: _455  and  _456
REMARK  192  A    between atoms: _461  and  _463
REMARK  193  A    between atoms: _463  and  _464
REMARK  194  A    between atoms: _463  and  _466
REMARK  195  A    between atoms: _466  and  _467
REMARK  196  A    between atoms: _471  and  _472
REMARK  197  A    between atoms: _477  and  _479
REMARK  198  A    between atoms: _479  and  _480
REMARK  199  A    between atoms: _479  and  _482
REMARK  200  A    between atoms: _482  and  _483
REMARK  201  A    between atoms: _486  and  _488
REMARK  202  A    between atoms: _488  and  _489
REMARK  203  A    between atoms: _488  and  _491
REMARK  204  A    between atoms: _491  and  _492
REMARK  205  A    between atoms: _497  and  _499
REMARK  206  A    between atoms: _499  and  _500
REMARK  207  A    between atoms: _499  and  _502
REMARK  208  A    between atoms: _505  and  _507
REMARK  209  A    between atoms: _507  and  _508
REMARK  210  A    between atoms: _507  and  _510
REMARK  211  A    between atoms: _510  and  _511
REMARK  212  A    between atoms: _514  and  _516
REMARK  213  A    between atoms: _516  and  _517
REMARK  214  A    between atoms: _519  and  _521
REMARK  215  A    between atoms: _521  and  _522
REMARK  216  A    between atoms: _521  and  _524
REMARK  217  A    between atoms: _524  and  _525
REMARK  218  A    between atoms: _525  and  _526
REMARK  219  A    between atoms: _526  and  _527
REMARK                            x       y       z     vdW  Elec       q    Type
REMARK                         _______ _______ _______ _____ _____    ______ ____
ROOT
ATOM      1  O   HOH     1      -1.959  16.791  21.193  0.00  0.00    +0.000 OA
ENDROOT
TORSDOF 0
REMARK  Name = ../refined-set-2016/3u7s/3u7s_pocket.pdb
REMARK  219 active torsions:
REMARK  status: ('A' for Active; 'I' for Inactive)
REMARK    1  A    between atoms: _1  and  _3
REMARK    2  A    between atoms: _3  and  _4
REMARK    3  A    between atoms: _3  and  _6
REMARK    4  A    between atoms: _6  and  _7
REMARK    5  A    between atoms: _7  and  _8
REMARK    6  A    between atoms: _8  and  _9
REMARK    7  A    between atoms: _18  and  _20
REMARK    8  A    between atoms: _20  and  _21
REMARK    9  A    between atoms: _20  and  _23
REMARK   10  A    between atoms: _23  and  _24
REMARK   11  A    between atoms: _27  and  _29
REMARK   12  A    between atoms: _29  and  _30
REMARK   13  A    between atoms: _29  and  _32
REMARK   14  A    between atoms: _32  and  _33
REMARK   15  A    between atoms: _36  and  _38
REMARK   16  A    between atoms: _38  and  _39
REMARK   17  A    between atoms: _38  and  _41
REMARK   18  A    between atoms: _41  and  _42
REMARK   19  A    between atoms: _45  and  _47
REMARK   20  A    between atoms: _47  and  _48
REMARK   21  A    between atoms: _47  and  _50
REMARK   22  A    between atoms: _50  and  _51
REMARK   23  A    between atoms: _54  and  _56
REMARK   24  A    between atoms: _56  and  _57
REMARK   25  A    between atoms: _59  and  _61
REMARK   26  A    between atoms: _61  and  _62
REMARK   27  A    between atoms: _65  and  _67
REMARK   28  A    between atoms: _67  and  _68
REMARK   29  A    between atoms: _67  and  _70
REMARK   30  A    between atoms: _70  and  _71
REMARK   31  A    between atoms: _74  and  _76
REMARK   32  A    between atoms: _76  and  _77
REMARK   33  A    between atoms: _76  and  _79
REMARK   34  A    between atoms: _79  and  _80
REMARK   35  A    between atoms: _83  and  _85
REMARK   36  A    between atoms: _85  and  _86
REMARK   37  A    between atoms: _85  and  _88
REMARK   38  A    between atoms: _88  and  _89
REMARK   39  A    between atoms: _92  and  _94
REMARK   40  A    between atoms: _94  and  _95
REMARK   41  A    between atoms: _94  and  _97
REMARK   42  A    between atoms: _97  and  _98
REMARK   43  A    between atoms: _101  and  _103
REMARK   44  A    between atoms: _103  and  _104
REMARK   45  A    between atoms: _103  and  _106
REMARK   46  A    between atoms: _106  and  _107
REMARK   47  A    between atoms: _107  and  _108
REMARK   48  A    between atoms: _108  and  _109
REMARK   49  A    between atoms: _109  and  _110
REMARK   50  A    between atoms: _114  and  _116
REMARK   51  A    between atoms: _116  and  _117
REMARK   52  A    between atoms: _116  and  _119
REMARK   53  A    between atoms: _119  and  _120
REMARK   54  A    between atoms: _120  and  _121
REMARK   55  A    between atoms: _125  and  _126
REMARK   56  A    between atoms: _125  and  _128
REMARK   57  A    between atoms: _128  and  _129
REMARK   58  A    between atoms: _132  and  _134
REMARK   59  A    between atoms: _134  and  _135
REMARK   60  A    between atoms: _137  and  _139
REMARK   61  A    between atoms: _139  and  _140
REMARK   62  A    between atoms: _142  and  _144
REMARK   63  A    between atoms: _144  and  _145
REMARK   64  A    between atoms: _144  and  _147
REMARK   65  A    between atoms: _147  and  _148
REMARK   66  A    between atoms: _151  and  _153
REMARK   67  A    between atoms: _153  and  _154
REMARK   68  A    between atoms: _156  and  _158
REMARK   69  A    between atoms: _158  and  _159
REMARK   70  A    between atoms: _161  and  _163
REMARK   71  A    between atoms: _163  and  _164
REMARK   72  A    between atoms: _163  and  _166
REMARK   73  A    between atoms: _166  and  _167
REMARK   74  A    between atoms: _173  and  _175
REMARK   75  A    between atoms: _175  and  _176
REMARK   76  A    between atoms: _175  and  _178
REMARK   77  A    between atoms: _178  and  _179
REMARK   78  A    between atoms: _182  and  _184
REMARK   79  A    between atoms: _184  and  _185
REMARK   80  A    between atoms: _184  and  _187
REMARK   81  A    between atoms: _187  and  _188
REMARK   82  A    between atoms: _192  and  _193
REMARK   83  A    between atoms: _198  and  _200
REMARK   84  A    between atoms: _200  and  _201
REMARK   85  A    between atoms: _200  and  _203
REMARK   86  A    between atoms: _203  and  _204
REMARK   87  A    between atoms: _207  and  _209
REMARK   88  A    between atoms: _209  and  _210
REMARK   89  A    between atoms: _209  and  _212
REMARK   90  A    between atoms: _212  and  _213
REMARK   91  A    between atoms: _218  and  _220
REMARK   92  A    between atoms: _220  and  _221
REMARK   93  A    between atoms: _220  and  _223
REMARK   94  A    between atoms: _226  and  _228
REMARK   95  A    between atoms: _228  and  _229
REMARK   96  A    between atoms: _228  and  _231
REMARK   97  A    between atoms: _231  and  _232
REMARK   98  A    between atoms: _235  and  _237
REMARK   99  A    between atoms: _237  and  _238
REMARK  100  A    between atoms: _240  and  _242
REMARK  101  A    between atoms: _242  and  _243
REMARK  102  A    between atoms: _242  and  _245
REMARK  103  A    between atoms: _245  and  _246
REMARK  104  A    between atoms: _246  and  _247
REMARK  105  A    between atoms: _247  and  _248
REMARK  106  A    between atoms: _257  and  _259
REMARK  107  A    between atoms: _259  and  _260
REMARK  108  A    between atoms: _259  and  _262
REMARK  109  A    between atoms: _262  and  _263
REMARK  110  A    between atoms: _268  and  _270
REMARK  111  A    between atoms: _270  and  _271
REMARK  112  A    between atoms: _270  and  _273
REMARK  113  A    between atoms: _273  and  _274
REMARK  114  A    between atoms: _274  and  _275
REMARK  115  A    between atoms: _275  and  _276
REMARK  116  A    between atoms: _285  and  _287
REMARK  117  A    between atoms: _287  and  _288
REMARK  118  A    between atoms: _287  and  _290
REMARK  119  A    between atoms: _290  and  _291
REMARK  120  A    between atoms: _294  and  _296
REMARK  121  A    between atoms: _296  and  _297
REMARK  122  A    between atoms: _296  and  _299
REMARK  123  A    between atoms: _299  and  _300
REMARK  124  A    between atoms: _303  and  _305
REMARK  125  A    between atoms: _305  and  _306
REMARK  126  A    between atoms: _305  and  _308
REMARK  127  A    between atoms: _308  and  _309
REMARK  128  A    between atoms: _312  and  _314
REMARK  129  A    between atoms: _314  and  _315
REMARK  130  A    between atoms: _314  and  _317
REMARK  131  A    between atoms: _317  and  _318
REMARK  132  A    between atoms: _321  and  _323
REMARK  133  A    between atoms: _323  and  _324
REMARK  134  A    between atoms: _326  and  _328
REMARK  135  A    between atoms: _328  and  _329
REMARK  136  A    between atoms: _332  and  _334
REMARK  137  A    between atoms: _334  and  _335
REMARK  138  A    between atoms: _334  and  _337
REMARK  139  A    between atoms: _337  and  _338
REMARK  140  A    between atoms: _341  and  _343
REMARK  141  A    between atoms: _343  and  _344
REMARK  142  A    between atoms: _343  and  _346
REMARK  143  A    between atoms: _346  and  _347
REMARK  144  A    between atoms: _350  and  _352
REMARK  145  A    between atoms: _352  and  _353
REMARK  146  A    between atoms: _352  and  _355
REMARK  147  A    between atoms: _355  and  _356
REMARK  148  A    between atoms: _359  and  _361
REMARK  149  A    between atoms: _361  and  _362
REMARK  150  A    between atoms: _361  and  _364
REMARK  151  A    between atoms: _364  and  _365
REMARK  152  A    between atoms: _368  and  _370
REMARK  153  A    between atoms: _370  and  _371
REMARK  154  A    between atoms: _370  and  _373
REMARK  155  A    between atoms: _373  and  _374
REMARK  156  A    between atoms: _374  and  _375
REMARK  157  A    between atoms: _375  and  _376
REMARK  158  A    between atoms: _376  and  _377
REMARK  159  A    between atoms: _381  and  _383
REMARK  160  A    between atoms: _383  and  _384
REMARK  161  A    between atoms: _383  and  _386
REMARK  162  A    between atoms: _386  and  _387
REMARK  163  A    between atoms: _387  and  _388
REMARK  164  A    between atoms: _390  and  _392
REMARK  165  A    between atoms: _392  and  _393
REMARK  166  A    between atoms: _392  and  _395
REMARK  167  A    between atoms: _395  and  _396
REMARK  168  A    between atoms: _399  and  _401
REMARK  169  A    between atoms: _401  and  _402
REMARK  170  A    between atoms: _404  and  _406
REMARK  171  A    between atoms: _406  and  _407
REMARK  172  A    between atoms: _409  and  _411
REMARK  173  A    between atoms: _411  and  _412
REMARK  174  A    between atoms: _411  and  _414
REMARK  175  A    between atoms: _414  and  _415
REMARK  176  A    between atoms: _418  and  _420
REMARK  177  A    between atoms: _420  and  _421
REMARK  178  A    between atoms: _423  and  _425
REMARK  179  A    between atoms: _425  and  _426
REMARK  180  A    between atoms: _428  and  _430
REMARK  181  A    between atoms: _430  and  _431
REMARK  182  A    between atoms: _430  and  _433
REMARK  183  A    between atoms: _433  and  _434
REMARK  184  A    between atoms: _437  and  _439
REMARK  185  A    between atoms: _439  and  _440
REMARK  186  A    between atoms: _439  and  _442
REMARK  187  A    between atoms: _445  and  _447
REMARK  188  A    between atoms: _447  and  _448
REMARK  189  A    between atoms: _447  and  _450
REMARK  190  A    between atoms: _450  and  _451
REMARK  191  A    between atoms: _455  and  _456
REMARK  192  A    between atoms: _461  and  _463
REMARK  193  A    between atoms: _463  and  _464
REMARK  194  A    between atoms: _463  and  _466
REMARK  195  A    between atoms: _466  and  _467
REMARK  196  A    between atoms: _471  and  _472
REMARK  197  A    between atoms: _477  and  _479
REMARK  198  A    between atoms: _479  and  _480
REMARK  199  A    between atoms: _479  and  _482
REMARK  200  A    between atoms: _482  and  _483
REMARK  201  A    between atoms: _486  and  _488
REMARK  202  A    between atoms: _488  and  _489
REMARK  203  A    between atoms: _488  and  _491
REMARK  204  A    between atoms: _491  and  _492
REMARK  205  A    between atoms: _497  and  _499
REMARK  206  A    between atoms: _499  and  _500
REMARK  207  A    between atoms: _499  and  _502
REMARK  208  A    between atoms: _505  and  _507
REMARK  209  A    between atoms: _507  and  _508
REMARK  210  A    between atoms: _507  and  _510
REMARK  211  A    between atoms: _510  and  _511
REMARK  212  A    between atoms: _514  and  _516
REMARK  213  A    between atoms: _516  and  _517
REMARK  214  A    between atoms: _519  and  _521
REMARK  215  A    between atoms: _521  and  _522
REMARK  216  A    between atoms: _521  and  _524
REMARK  217  A    between atoms: _524  and  _525
REMARK  218  A    between atoms: _525  and  _526
REMARK  219  A    between atoms: _526  and  _527
REMARK                            x       y       z     vdW  Elec       q    Type
REMARK                         _______ _______ _______ _____ _____    ______ ____
ROOT
ATOM      1  O   HOH     1      -5.740  25.915  16.692  0.00  0.00    +0.000 OA
ENDROOT
TORSDOF 0
REMARK  Name = ../refined-set-2016/3u7s/3u7s_pocket.pdb
REMARK  219 active torsions:
REMARK  status: ('A' for Active; 'I' for Inactive)
REMARK    1  A    between atoms: _1  and  _3
REMARK    2  A    between atoms: _3  and  _4
REMARK    3  A    between atoms: _3  and  _6
REMARK    4  A    between atoms: _6  and  _7
REMARK    5  A    between atoms: _7  and  _8
REMARK    6  A    between atoms: _8  and  _9
REMARK    7  A    between atoms: _18  and  _20
REMARK    8  A    between atoms: _20  and  _21
REMARK    9  A    between atoms: _20  and  _23
REMARK   10  A    between atoms: _23  and  _24
REMARK   11  A    between atoms: _27  and  _29
REMARK   12  A    between atoms: _29  and  _30
REMARK   13  A    between atoms: _29  and  _32
REMARK   14  A    between atoms: _32  and  _33
REMARK   15  A    between atoms: _36  and  _38
REMARK   16  A    between atoms: _38  and  _39
REMARK   17  A    between atoms: _38  and  _41
REMARK   18  A    between atoms: _41  and  _42
REMARK   19  A    between atoms: _45  and  _47
REMARK   20  A    between atoms: _47  and  _48
REMARK   21  A    between atoms: _47  and  _50
REMARK   22  A    between atoms: _50  and  _51
REMARK   23  A    between atoms: _54  and  _56
REMARK   24  A    between atoms: _56  and  _57
REMARK   25  A    between atoms: _59  and  _61
REMARK   26  A    between atoms: _61  and  _62
REMARK   27  A    between atoms: _65  and  _67
REMARK   28  A    between atoms: _67  and  _68
REMARK   29  A    between atoms: _67  and  _70
REMARK   30  A    between atoms: _70  and  _71
REMARK   31  A    between atoms: _74  and  _76
REMARK   32  A    between atoms: _76  and  _77
REMARK   33  A    between atoms: _76  and  _79
REMARK   34  A    between atoms: _79  and  _80
REMARK   35  A    between atoms: _83  and  _85
REMARK   36  A    between atoms: _85  and  _86
REMARK   37  A    between atoms: _85  and  _88
REMARK   38  A    between atoms: _88  and  _89
REMARK   39  A    between atoms: _92  and  _94
REMARK   40  A    between atoms: _94  and  _95
REMARK   41  A    between atoms: _94  and  _97
REMARK   42  A    between atoms: _97  and  _98
REMARK   43  A    between atoms: _101  and  _103
REMARK   44  A    between atoms: _103  and  _104
REMARK   45  A    between atoms: _103  and  _106
REMARK   46  A    between atoms: _106  and  _107
REMARK   47  A    between atoms: _107  and  _108
REMARK   48  A    between atoms: _108  and  _109
REMARK   49  A    between atoms: _109  and  _110
REMARK   50  A    between atoms: _114  and  _116
REMARK   51  A    between atoms: _116  and  _117
REMARK   52  A    between atoms: _116  and  _119
REMARK   53  A    between atoms: _119  and  _120
REMARK   54  A    between atoms: _120  and  _121
REMARK   55  A    between atoms: _125  and  _126
REMARK   56  A    between atoms: _125  and  _128
REMARK   57  A    between atoms: _128  and  _129
REMARK   58  A    between atoms: _132  and  _134
REMARK   59  A    between atoms: _134  and  _135
REMARK   60  A    between atoms: _137  and  _139
REMARK   61  A    between atoms: _139  and  _140
REMARK   62  A    between atoms: _142  and  _144
REMARK   63  A    between atoms: _144  and  _145
REMARK   64  A    between atoms: _144  and  _147
REMARK   65  A    between atoms: _147  and  _148
REMARK   66  A    between atoms: _151  and  _153
REMARK   67  A    between atoms: _153  and  _154
REMARK   68  A    between atoms: _156  and  _158
REMARK   69  A    between atoms: _158  and  _159
REMARK   70  A    between atoms: _161  and  _163
REMARK   71  A    between atoms: _163  and  _164
REMARK   72  A    between atoms: _163  and  _166
REMARK   73  A    between atoms: _166  and  _167
REMARK   74  A    between atoms: _173  and  _175
REMARK   75  A    between atoms: _175  and  _176
REMARK   76  A    between atoms: _175  and  _178
REMARK   77  A    between atoms: _178  and  _179
REMARK   78  A    between atoms: _182  and  _184
REMARK   79  A    between atoms: _184  and  _185
REMARK   80  A    between atoms: _184  and  _187
REMARK   81  A    between atoms: _187  and  _188
REMARK   82  A    between atoms: _192  and  _193
REMARK   83  A    between atoms: _198  and  _200
REMARK   84  A    between atoms: _200  and  _201
REMARK   85  A    between atoms: _200  and  _203
REMARK   86  A    between atoms: _203  and  _204
REMARK   87  A    between atoms: _207  and  _209
REMARK   88  A    between atoms: _209  and  _210
REMARK   89  A    between atoms: _209  and  _212
REMARK   90  A    between atoms: _212  and  _213
REMARK   91  A    between atoms: _218  and  _220
REMARK   92  A    between atoms: _220  and  _221
REMARK   93  A    between atoms: _220  and  _223
REMARK   94  A    between atoms: _226  and  _228
REMARK   95  A    between atoms: _228  and  _229
REMARK   96  A    between atoms: _228  and  _231
REMARK   97  A    between atoms: _231  and  _232
REMARK   98  A    between atoms: _235  and  _237
REMARK   99  A    between atoms: _237  and  _238
REMARK  100  A    between atoms: _240  and  _242
REMARK  101  A    between atoms: _242  and  _243
REMARK  102  A    between atoms: _242  and  _245
REMARK  103  A    between atoms: _245  and  _246
REMARK  104  A    between atoms: _246  and  _247
REMARK  105  A    between atoms: _247  and  _248
REMARK  106  A    between atoms: _257  and  _259
REMARK  107  A    between atoms: _259  and  _260
REMARK  108  A    between atoms: _259  and  _262
REMARK  109  A    between atoms: _262  and  _263
REMARK  110  A    between atoms: _268  and  _270
REMARK  111  A    between atoms: _270  and  _271
REMARK  112  A    between atoms: _270  and  _273
REMARK  113  A    between atoms: _273  and  _274
REMARK  114  A    between atoms: _274  and  _275
REMARK  115  A    between atoms: _275  and  _276
REMARK  116  A    between atoms: _285  and  _287
REMARK  117  A    between atoms: _287  and  _288
REMARK  118  A    between atoms: _287  and  _290
REMARK  119  A    between atoms: _290  and  _291
REMARK  120  A    between atoms: _294  and  _296
REMARK  121  A    between atoms: _296  and  _297
REMARK  122  A    between atoms: _296  and  _299
REMARK  123  A    between atoms: _299  and  _300
REMARK  124  A    between atoms: _303  and  _305
REMARK  125  A    between atoms: _305  and  _306
REMARK  126  A    between atoms: _305  and  _308
REMARK  127  A    between atoms: _308  and  _309
REMARK  128  A    between atoms: _312  and  _314
REMARK  129  A    between atoms: _314  and  _315
REMARK  130  A    between atoms: _314  and  _317
REMARK  131  A    between atoms: _317  and  _318
REMARK  132  A    between atoms: _321  and  _323
REMARK  133  A    between atoms: _323  and  _324
REMARK  134  A    between atoms: _326  and  _328
REMARK  135  A    between atoms: _328  and  _329
REMARK  136  A    between atoms: _332  and  _334
REMARK  137  A    between atoms: _334  and  _335
REMARK  138  A    between atoms: _334  and  _337
REMARK  139  A    between atoms: _337  and  _338
REMARK  140  A    between atoms: _341  and  _343
REMARK  141  A    between atoms: _343  and  _344
REMARK  142  A    between atoms: _343  and  _346
REMARK  143  A    between atoms: _346  and  _347
REMARK  144  A    between atoms: _350  and  _352
REMARK  145  A    between atoms: _352  and  _353
REMARK  146  A    between atoms: _352  and  _355
REMARK  147  A    between atoms: _355  and  _356
REMARK  148  A    between atoms: _359  and  _361
REMARK  149  A    between atoms: _361  and  _362
REMARK  150  A    between atoms: _361  and  _364
REMARK  151  A    between atoms: _364  and  _365
REMARK  152  A    between atoms: _368  and  _370
REMARK  153  A    between atoms: _370  and  _371
REMARK  154  A    between atoms: _370  and  _373
REMARK  155  A    between atoms: _373  and  _374
REMARK  156  A    between atoms: _374  and  _375
REMARK  157  A    between atoms: _375  and  _376
REMARK  158  A    between atoms: _376  and  _377
REMARK  159  A    between atoms: _381  and  _383
REMARK  160  A    between atoms: _383  and  _384
REMARK  161  A    between atoms: _383  and  _386
REMARK  162  A    between atoms: _386  and  _387
REMARK  163  A    between atoms: _387  and  _388
REMARK  164  A    between atoms: _390  and  _392
REMARK  165  A    between atoms: _392  and  _393
REMARK  166  A    between atoms: _392  and  _395
REMARK  167  A    between atoms: _395  and  _396
REMARK  168  A    between atoms: _399  and  _401
REMARK  169  A    between atoms: _401  and  _402
REMARK  170  A    between atoms: _404  and  _406
REMARK  171  A    between atoms: _406  and  _407
REMARK  172  A    between atoms: _409  and  _411
REMARK  173  A    between atoms: _411  and  _412
REMARK  174  A    between atoms: _411  and  _414
REMARK  175  A    between atoms: _414  and  _415
REMARK  176  A    between atoms: _418  and  _420
REMARK  177  A    between atoms: _420  and  _421
REMARK  178  A    between atoms: _423  and  _425
REMARK  179  A    between atoms: _425  and  _426
REMARK  180  A    between atoms: _428  and  _430
REMARK  181  A    between atoms: _430  and  _431
REMARK  182  A    between atoms: _430  and  _433
REMARK  183  A    between atoms: _433  and  _434
REMARK  184  A    between atoms: _437  and  _439
REMARK  185  A    between atoms: _439  and  _440
REMARK  186  A    between atoms: _439  and  _442
REMARK  187  A    between atoms: _445  and  _447
REMARK  188  A    between atoms: _447  and  _448
REMARK  189  A    between atoms: _447  and  _450
REMARK  190  A    between atoms: _450  and  _451
REMARK  191  A    between atoms: _455  and  _456
REMARK  192  A    between atoms: _461  and  _463
REMARK  193  A    between atoms: _463  and  _464
REMARK  194  A    between atoms: _463  and  _466
REMARK  195  A    between atoms: _466  and  _467
REMARK  196  A    between atoms: _471  and  _472
REMARK  197  A    between atoms: _477  and  _479
REMARK  198  A    between atoms: _479  and  _480
REMARK  199  A    between atoms: _479  and  _482
REMARK  200  A    between atoms: _482  and  _483
REMARK  201  A    between atoms: _486  and  _488
REMARK  202  A    between atoms: _488  and  _489
REMARK  203  A    between atoms: _488  and  _491
REMARK  204  A    between atoms: _491  and  _492
REMARK  205  A    between atoms: _497  and  _499
REMARK  206  A    between atoms: _499  and  _500
REMARK  207  A    between atoms: _499  and  _502
REMARK  208  A    between atoms: _505  and  _507
REMARK  209  A    between atoms: _507  and  _508
REMARK  210  A    between atoms: _507  and  _510
REMARK  211  A    between atoms: _510  and  _511
REMARK  212  A    between atoms: _514  and  _516
REMARK  213  A    between atoms: _516  and  _517
REMARK  214  A    between atoms: _519  and  _521
REMARK  215  A    between atoms: _521  and  _522
REMARK  216  A    between atoms: _521  and  _524
REMARK  217  A    between atoms: _524  and  _525
REMARK  218  A    between atoms: _525  and  _526
REMARK  219  A    between atoms: _526  and  _527
REMARK                            x       y       z     vdW  Elec       q    Type
REMARK                         _______ _______ _______ _____ _____    ______ ____
ROOT
ATOM      1  O   HOH     1     -10.853  19.313  13.356  0.00  0.00    +0.000 OA
ENDROOT
TORSDOF 0
REMARK  Name = ../refined-set-2016/3u7s/3u7s_pocket.pdb
REMARK  219 active torsions:
REMARK  status: ('A' for Active; 'I' for Inactive)
REMARK    1  A    between atoms: _1  and  _3
REMARK    2  A    between atoms: _3  and  _4
REMARK    3  A    between atoms: _3  and  _6
REMARK    4  A    between atoms: _6  and  _7
REMARK    5  A    between atoms: _7  and  _8
REMARK    6  A    between atoms: _8  and  _9
REMARK    7  A    between atoms: _18  and  _20
REMARK    8  A    between atoms: _20  and  _21
REMARK    9  A    between atoms: _20  and  _23
REMARK   10  A    between atoms: _23  and  _24
REMARK   11  A    between atoms: _27  and  _29
REMARK   12  A    between atoms: _29  and  _30
REMARK   13  A    between atoms: _29  and  _32
REMARK   14  A    between atoms: _32  and  _33
REMARK   15  A    between atoms: _36  and  _38
REMARK   16  A    between atoms: _38  and  _39
REMARK   17  A    between atoms: _38  and  _41
REMARK   18  A    between atoms: _41  and  _42
REMARK   19  A    between atoms: _45  and  _47
REMARK   20  A    between atoms: _47  and  _48
REMARK   21  A    between atoms: _47  and  _50
REMARK   22  A    between atoms: _50  and  _51
REMARK   23  A    between atoms: _54  and  _56
REMARK   24  A    between atoms: _56  and  _57
REMARK   25  A    between atoms: _59  and  _61
REMARK   26  A    between atoms: _61  and  _62
REMARK   27  A    between atoms: _65  and  _67
REMARK   28  A    between atoms: _67  and  _68
REMARK   29  A    between atoms: _67  and  _70
REMARK   30  A    between atoms: _70  and  _71
REMARK   31  A    between atoms: _74  and  _76
REMARK   32  A    between atoms: _76  and  _77
REMARK   33  A    between atoms: _76  and  _79
REMARK   34  A    between atoms: _79  and  _80
REMARK   35  A    between atoms: _83  and  _85
REMARK   36  A    between atoms: _85  and  _86
REMARK   37  A    between atoms: _85  and  _88
REMARK   38  A    between atoms: _88  and  _89
REMARK   39  A    between atoms: _92  and  _94
REMARK   40  A    between atoms: _94  and  _95
REMARK   41  A    between atoms: _94  and  _97
REMARK   42  A    between atoms: _97  and  _98
REMARK   43  A    between atoms: _101  and  _103
REMARK   44  A    between atoms: _103  and  _104
REMARK   45  A    between atoms: _103  and  _106
REMARK   46  A    between atoms: _106  and  _107
REMARK   47  A    between atoms: _107  and  _108
REMARK   48  A    between atoms: _108  and  _109
REMARK   49  A    between atoms: _109  and  _110
REMARK   50  A    between atoms: _114  and  _116
REMARK   51  A    between atoms: _116  and  _117
REMARK   52  A    between atoms: _116  and  _119
REMARK   53  A    between atoms: _119  and  _120
REMARK   54  A    between atoms: _120  and  _121
REMARK   55  A    between atoms: _125  and  _126
REMARK   56  A    between atoms: _125  and  _128
REMARK   57  A    between atoms: _128  and  _129
REMARK   58  A    between atoms: _132  and  _134
REMARK   59  A    between atoms: _134  and  _135
REMARK   60  A    between atoms: _137  and  _139
REMARK   61  A    between atoms: _139  and  _140
REMARK   62  A    between atoms: _142  and  _144
REMARK   63  A    between atoms: _144  and  _145
REMARK   64  A    between atoms: _144  and  _147
REMARK   65  A    between atoms: _147  and  _148
REMARK   66  A    between atoms: _151  and  _153
REMARK   67  A    between atoms: _153  and  _154
REMARK   68  A    between atoms: _156  and  _158
REMARK   69  A    between atoms: _158  and  _159
REMARK   70  A    between atoms: _161  and  _163
REMARK   71  A    between atoms: _163  and  _164
REMARK   72  A    between atoms: _163  and  _166
REMARK   73  A    between atoms: _166  and  _167
REMARK   74  A    between atoms: _173  and  _175
REMARK   75  A    between atoms: _175  and  _176
REMARK   76  A    between atoms: _175  and  _178
REMARK   77  A    between atoms: _178  and  _179
REMARK   78  A    between atoms: _182  and  _184
REMARK   79  A    between atoms: _184  and  _185
REMARK   80  A    between atoms: _184  and  _187
REMARK   81  A    between atoms: _187  and  _188
REMARK   82  A    between atoms: _192  and  _193
REMARK   83  A    between atoms: _198  and  _200
REMARK   84  A    between atoms: _200  and  _201
REMARK   85  A    between atoms: _200  and  _203
REMARK   86  A    between atoms: _203  and  _204
REMARK   87  A    between atoms: _207  and  _209
REMARK   88  A    between atoms: _209  and  _210
REMARK   89  A    between atoms: _209  and  _212
REMARK   90  A    between atoms: _212  and  _213
REMARK   91  A    between atoms: _218  and  _220
REMARK   92  A    between atoms: _220  and  _221
REMARK   93  A    between atoms: _220  and  _223
REMARK   94  A    between atoms: _226  and  _228
REMARK   95  A    between atoms: _228  and  _229
REMARK   96  A    between atoms: _228  and  _231
REMARK   97  A    between atoms: _231  and  _232
REMARK   98  A    between atoms: _235  and  _237
REMARK   99  A    between atoms: _237  and  _238
REMARK  100  A    between atoms: _240  and  _242
REMARK  101  A    between atoms: _242  and  _243
REMARK  102  A    between atoms: _242  and  _245
REMARK  103  A    between atoms: _245  and  _246
REMARK  104  A    between atoms: _246  and  _247
REMARK  105  A    between atoms: _247  and  _248
REMARK  106  A    between atoms: _257  and  _259
REMARK  107  A    between atoms: _259  and  _260
REMARK  108  A    between atoms: _259  and  _262
REMARK  109  A    between atoms: _262  and  _263
REMARK  110  A    between atoms: _268  and  _270
REMARK  111  A    between atoms: _270  and  _271
REMARK  112  A    between atoms: _270  and  _273
REMARK  113  A    between atoms: _273  and  _274
REMARK  114  A    between atoms: _274  and  _275
REMARK  115  A    between atoms: _275  and  _276
REMARK  116  A    between atoms: _285  and  _287
REMARK  117  A    between atoms: _287  and  _288
REMARK  118  A    between atoms: _287  and  _290
REMARK  119  A    between atoms: _290  and  _291
REMARK  120  A    between atoms: _294  and  _296
REMARK  121  A    between atoms: _296  and  _297
REMARK  122  A    between atoms: _296  and  _299
REMARK  123  A    between atoms: _299  and  _300
REMARK  124  A    between atoms: _303  and  _305
REMARK  125  A    between atoms: _305  and  _306
REMARK  126  A    between atoms: _305  and  _308
REMARK  127  A    between atoms: _308  and  _309
REMARK  128  A    between atoms: _312  and  _314
REMARK  129  A    between atoms: _314  and  _315
REMARK  130  A    between atoms: _314  and  _317
REMARK  131  A    between atoms: _317  and  _318
REMARK  132  A    between atoms: _321  and  _323
REMARK  133  A    between atoms: _323  and  _324
REMARK  134  A    between atoms: _326  and  _328
REMARK  135  A    between atoms: _328  and  _329
REMARK  136  A    between atoms: _332  and  _334
REMARK  137  A    between atoms: _334  and  _335
REMARK  138  A    between atoms: _334  and  _337
REMARK  139  A    between atoms: _337  and  _338
REMARK  140  A    between atoms: _341  and  _343
REMARK  141  A    between atoms: _343  and  _344
REMARK  142  A    between atoms: _343  and  _346
REMARK  143  A    between atoms: _346  and  _347
REMARK  144  A    between atoms: _350  and  _352
REMARK  145  A    between atoms: _352  and  _353
REMARK  146  A    between atoms: _352  and  _355
REMARK  147  A    between atoms: _355  and  _356
REMARK  148  A    between atoms: _359  and  _361
REMARK  149  A    between atoms: _361  and  _362
REMARK  150  A    between atoms: _361  and  _364
REMARK  151  A    between atoms: _364  and  _365
REMARK  152  A    between atoms: _368  and  _370
REMARK  153  A    between atoms: _370  and  _371
REMARK  154  A    between atoms: _370  and  _373
REMARK  155  A    between atoms: _373  and  _374
REMARK  156  A    between atoms: _374  and  _375
REMARK  157  A    between atoms: _375  and  _376
REMARK  158  A    between atoms: _376  and  _377
REMARK  159  A    between atoms: _381  and  _383
REMARK  160  A    between atoms: _383  and  _384
REMARK  161  A    between atoms: _383  and  _386
REMARK  162  A    between atoms: _386  and  _387
REMARK  163  A    between atoms: _387  and  _388
REMARK  164  A    between atoms: _390  and  _392
REMARK  165  A    between atoms: _392  and  _393
REMARK  166  A    between atoms: _392  and  _395
REMARK  167  A    between atoms: _395  and  _396
REMARK  168  A    between atoms: _399  and  _401
REMARK  169  A    between atoms: _401  and  _402
REMARK  170  A    between atoms: _404  and  _406
REMARK  171  A    between atoms: _406  and  _407
REMARK  172  A    between atoms: _409  and  _411
REMARK  173  A    between atoms: _411  and  _412
REMARK  174  A    between atoms: _411  and  _414
REMARK  175  A    between atoms: _414  and  _415
REMARK  176  A    between atoms: _418  and  _420
REMARK  177  A    between atoms: _420  and  _421
REMARK  178  A    between atoms: _423  and  _425
REMARK  179  A    between atoms: _425  and  _426
REMARK  180  A    between atoms: _428  and  _430
REMARK  181  A    between atoms: _430  and  _431
REMARK  182  A    between atoms: _430  and  _433
REMARK  183  A    between atoms: _433  and  _434
REMARK  184  A    between atoms: _437  and  _439
REMARK  185  A    between atoms: _439  and  _440
REMARK  186  A    between atoms: _439  and  _442
REMARK  187  A    between atoms: _445  and  _447
REMARK  188  A    between atoms: _447  and  _448
REMARK  189  A    between atoms: _447  and  _450
REMARK  190  A    between atoms: _450  and  _451
REMARK  191  A    between atoms: _455  and  _456
REMARK  192  A    between atoms: _461  and  _463
REMARK  193  A    between atoms: _463  and  _464
REMARK  194  A    between atoms: _463  and  _466
REMARK  195  A    between atoms: _466  and  _467
REMARK  196  A    between atoms: _471  and  _472
REMARK  197  A    between atoms: _477  and  _479
REMARK  198  A    between atoms: _479  and  _480
REMARK  199  A    between atoms: _479  and  _482
REMARK  200  A    between atoms: _482  and  _483
REMARK  201  A    between atoms: _486  and  _488
REMARK  202  A    between atoms: _488  and  _489
REMARK  203  A    between atoms: _488  and  _491
REMARK  204  A    between atoms: _491  and  _492
REMARK  205  A    between atoms: _497  and  _499
REMARK  206  A    between atoms: _499  and  _500
REMARK  207  A    between atoms: _499  and  _502
REMARK  208  A    between atoms: _505  and  _507
REMARK  209  A    between atoms: _507  and  _508
REMARK  210  A    between atoms: _507  and  _510
REMARK  211  A    between atoms: _510  and  _511
REMARK  212  A    between atoms: _514  and  _516
REMARK  213  A    between atoms: _516  and  _517
REMARK  214  A    between atoms: _519  and  _521
REMARK  215  A    between atoms: _521  and  _522
REMARK  216  A    between atoms: _521  and  _524
REMARK  217  A    between atoms: _524  and  _525
REMARK  218  A    between atoms: _525  and  _526
REMARK  219  A    between atoms: _526  and  _527
REMARK                            x       y       z     vdW  Elec       q    Type
REMARK                         _______ _______ _______ _____ _____    ______ ____
ROOT
ATOM      1  O   HOH     1      -4.238  23.596  17.459  0.00  0.00    +0.000 OA
ENDROOT
TORSDOF 0
REMARK  Name = ../refined-set-2016/3u7s/3u7s_pocket.pdb
REMARK  219 active torsions:
REMARK  status: ('A' for Active; 'I' for Inactive)
REMARK    1  A    between atoms: _1  and  _3
REMARK    2  A    between atoms: _3  and  _4
REMARK    3  A    between atoms: _3  and  _6
REMARK    4  A    between atoms: _6  and  _7
REMARK    5  A    between atoms: _7  and  _8
REMARK    6  A    between atoms: _8  and  _9
REMARK    7  A    between atoms: _18  and  _20
REMARK    8  A    between atoms: _20  and  _21
REMARK    9  A    between atoms: _20  and  _23
REMARK   10  A    between atoms: _23  and  _24
REMARK   11  A    between atoms: _27  and  _29
REMARK   12  A    between atoms: _29  and  _30
REMARK   13  A    between atoms: _29  and  _32
REMARK   14  A    between atoms: _32  and  _33
REMARK   15  A    between atoms: _36  and  _38
REMARK   16  A    between atoms: _38  and  _39
REMARK   17  A    between atoms: _38  and  _41
REMARK   18  A    between atoms: _41  and  _42
REMARK   19  A    between atoms: _45  and  _47
REMARK   20  A    between atoms: _47  and  _48
REMARK   21  A    between atoms: _47  and  _50
REMARK   22  A    between atoms: _50  and  _51
REMARK   23  A    between atoms: _54  and  _56
REMARK   24  A    between atoms: _56  and  _57
REMARK   25  A    between atoms: _59  and  _61
REMARK   26  A    between atoms: _61  and  _62
REMARK   27  A    between atoms: _65  and  _67
REMARK   28  A    between atoms: _67  and  _68
REMARK   29  A    between atoms: _67  and  _70
REMARK   30  A    between atoms: _70  and  _71
REMARK   31  A    between atoms: _74  and  _76
REMARK   32  A    between atoms: _76  and  _77
REMARK   33  A    between atoms: _76  and  _79
REMARK   34  A    between atoms: _79  and  _80
REMARK   35  A    between atoms: _83  and  _85
REMARK   36  A    between atoms: _85  and  _86
REMARK   37  A    between atoms: _85  and  _88
REMARK   38  A    between atoms: _88  and  _89
REMARK   39  A    between atoms: _92  and  _94
REMARK   40  A    between atoms: _94  and  _95
REMARK   41  A    between atoms: _94  and  _97
REMARK   42  A    between atoms: _97  and  _98
REMARK   43  A    between atoms: _101  and  _103
REMARK   44  A    between atoms: _103  and  _104
REMARK   45  A    between atoms: _103  and  _106
REMARK   46  A    between atoms: _106  and  _107
REMARK   47  A    between atoms: _107  and  _108
REMARK   48  A    between atoms: _108  and  _109
REMARK   49  A    between atoms: _109  and  _110
REMARK   50  A    between atoms: _114  and  _116
REMARK   51  A    between atoms: _116  and  _117
REMARK   52  A    between atoms: _116  and  _119
REMARK   53  A    between atoms: _119  and  _120
REMARK   54  A    between atoms: _120  and  _121
REMARK   55  A    between atoms: _125  and  _126
REMARK   56  A    between atoms: _125  and  _128
REMARK   57  A    between atoms: _128  and  _129
REMARK   58  A    between atoms: _132  and  _134
REMARK   59  A    between atoms: _134  and  _135
REMARK   60  A    between atoms: _137  and  _139
REMARK   61  A    between atoms: _139  and  _140
REMARK   62  A    between atoms: _142  and  _144
REMARK   63  A    between atoms: _144  and  _145
REMARK   64  A    between atoms: _144  and  _147
REMARK   65  A    between atoms: _147  and  _148
REMARK   66  A    between atoms: _151  and  _153
REMARK   67  A    between atoms: _153  and  _154
REMARK   68  A    between atoms: _156  and  _158
REMARK   69  A    between atoms: _158  and  _159
REMARK   70  A    between atoms: _161  and  _163
REMARK   71  A    between atoms: _163  and  _164
REMARK   72  A    between atoms: _163  and  _166
REMARK   73  A    between atoms: _166  and  _167
REMARK   74  A    between atoms: _173  and  _175
REMARK   75  A    between atoms: _175  and  _176
REMARK   76  A    between atoms: _175  and  _178
REMARK   77  A    between atoms: _178  and  _179
REMARK   78  A    between atoms: _182  and  _184
REMARK   79  A    between atoms: _184  and  _185
REMARK   80  A    between atoms: _184  and  _187
REMARK   81  A    between atoms: _187  and  _188
REMARK   82  A    between atoms: _192  and  _193
REMARK   83  A    between atoms: _198  and  _200
REMARK   84  A    between atoms: _200  and  _201
REMARK   85  A    between atoms: _200  and  _203
REMARK   86  A    between atoms: _203  and  _204
REMARK   87  A    between atoms: _207  and  _209
REMARK   88  A    between atoms: _209  and  _210
REMARK   89  A    between atoms: _209  and  _212
REMARK   90  A    between atoms: _212  and  _213
REMARK   91  A    between atoms: _218  and  _220
REMARK   92  A    between atoms: _220  and  _221
REMARK   93  A    between atoms: _220  and  _223
REMARK   94  A    between atoms: _226  and  _228
REMARK   95  A    between atoms: _228  and  _229
REMARK   96  A    between atoms: _228  and  _231
REMARK   97  A    between atoms: _231  and  _232
REMARK   98  A    between atoms: _235  and  _237
REMARK   99  A    between atoms: _237  and  _238
REMARK  100  A    between atoms: _240  and  _242
REMARK  101  A    between atoms: _242  and  _243
REMARK  102  A    between atoms: _242  and  _245
REMARK  103  A    between atoms: _245  and  _246
REMARK  104  A    between atoms: _246  and  _247
REMARK  105  A    between atoms: _247  and  _248
REMARK  106  A    between atoms: _257  and  _259
REMARK  107  A    between atoms: _259  and  _260
REMARK  108  A    between atoms: _259  and  _262
REMARK  109  A    between atoms: _262  and  _263
REMARK  110  A    between atoms: _268  and  _270
REMARK  111  A    between atoms: _270  and  _271
REMARK  112  A    between atoms: _270  and  _273
REMARK  113  A    between atoms: _273  and  _274
REMARK  114  A    between atoms: _274  and  _275
REMARK  115  A    between atoms: _275  and  _276
REMARK  116  A    between atoms: _285  and  _287
REMARK  117  A    between atoms: _287  and  _288
REMARK  118  A    between atoms: _287  and  _290
REMARK  119  A    between atoms: _290  and  _291
REMARK  120  A    between atoms: _294  and  _296
REMARK  121  A    between atoms: _296  and  _297
REMARK  122  A    between atoms: _296  and  _299
REMARK  123  A    between atoms: _299  and  _300
REMARK  124  A    between atoms: _303  and  _305
REMARK  125  A    between atoms: _305  and  _306
REMARK  126  A    between atoms: _305  and  _308
REMARK  127  A    between atoms: _308  and  _309
REMARK  128  A    between atoms: _312  and  _314
REMARK  129  A    between atoms: _314  and  _315
REMARK  130  A    between atoms: _314  and  _317
REMARK  131  A    between atoms: _317  and  _318
REMARK  132  A    between atoms: _321  and  _323
REMARK  133  A    between atoms: _323  and  _324
REMARK  134  A    between atoms: _326  and  _328
REMARK  135  A    between atoms: _328  and  _329
REMARK  136  A    between atoms: _332  and  _334
REMARK  137  A    between atoms: _334  and  _335
REMARK  138  A    between atoms: _334  and  _337
REMARK  139  A    between atoms: _337  and  _338
REMARK  140  A    between atoms: _341  and  _343
REMARK  141  A    between atoms: _343  and  _344
REMARK  142  A    between atoms: _343  and  _346
REMARK  143  A    between atoms: _346  and  _347
REMARK  144  A    between atoms: _350  and  _352
REMARK  145  A    between atoms: _352  and  _353
REMARK  146  A    between atoms: _352  and  _355
REMARK  147  A    between atoms: _355  and  _356
REMARK  148  A    between atoms: _359  and  _361
REMARK  149  A    between atoms: _361  and  _362
REMARK  150  A    between atoms: _361  and  _364
REMARK  151  A    between atoms: _364  and  _365
REMARK  152  A    between atoms: _368  and  _370
REMARK  153  A    between atoms: _370  and  _371
REMARK  154  A    between atoms: _370  and  _373
REMARK  155  A    between atoms: _373  and  _374
REMARK  156  A    between atoms: _374  and  _375
REMARK  157  A    between atoms: _375  and  _376
REMARK  158  A    between atoms: _376  and  _377
REMARK  159  A    between atoms: _381  and  _383
REMARK  160  A    between atoms: _383  and  _384
REMARK  161  A    between atoms: _383  and  _386
REMARK  162  A    between atoms: _386  and  _387
REMARK  163  A    between atoms: _387  and  _388
REMARK  164  A    between atoms: _390  and  _392
REMARK  165  A    between atoms: _392  and  _393
REMARK  166  A    between atoms: _392  and  _395
REMARK  167  A    between atoms: _395  and  _396
REMARK  168  A    between atoms: _399  and  _401
REMARK  169  A    between atoms: _401  and  _402
REMARK  170  A    between atoms: _404  and  _406
REMARK  171  A    between atoms: _406  and  _407
REMARK  172  A    between atoms: _409  and  _411
REMARK  173  A    between atoms: _411  and  _412
REMARK  174  A    between atoms: _411  and  _414
REMARK  175  A    between atoms: _414  and  _415
REMARK  176  A    between atoms: _418  and  _420
REMARK  177  A    between atoms: _420  and  _421
REMARK  178  A    between atoms: _423  and  _425
REMARK  179  A    between atoms: _425  and  _426
REMARK  180  A    between atoms: _428  and  _430
REMARK  181  A    between atoms: _430  and  _431
REMARK  182  A    between atoms: _430  and  _433
REMARK  183  A    between atoms: _433  and  _434
REMARK  184  A    between atoms: _437  and  _439
REMARK  185  A    between atoms: _439  and  _440
REMARK  186  A    between atoms: _439  and  _442
REMARK  187  A    between atoms: _445  and  _447
REMARK  188  A    between atoms: _447  and  _448
REMARK  189  A    between atoms: _447  and  _450
REMARK  190  A    between atoms: _450  and  _451
REMARK  191  A    between atoms: _455  and  _456
REMARK  192  A    between atoms: _461  and  _463
REMARK  193  A    between atoms: _463  and  _464
REMARK  194  A    between atoms: _463  and  _466
REMARK  195  A    between atoms: _466  and  _467
REMARK  196  A    between atoms: _471  and  _472
REMARK  197  A    between atoms: _477  and  _479
REMARK  198  A    between atoms: _479  and  _480
REMARK  199  A    between atoms: _479  and  _482
REMARK  200  A    between atoms: _482  and  _483
REMARK  201  A    between atoms: _486  and  _488
REMARK  202  A    between atoms: _488  and  _489
REMARK  203  A    between atoms: _488  and  _491
REMARK  204  A    between atoms: _491  and  _492
REMARK  205  A    between atoms: _497  and  _499
REMARK  206  A    between atoms: _499  and  _500
REMARK  207  A    between atoms: _499  and  _502
REMARK  208  A    between atoms: _505  and  _507
REMARK  209  A    between atoms: _507  and  _508
REMARK  210  A    between atoms: _507  and  _510
REMARK  211  A    between atoms: _510  and  _511
REMARK  212  A    between atoms: _514  and  _516
REMARK  213  A    between atoms: _516  and  _517
REMARK  214  A    between atoms: _519  and  _521
REMARK  215  A    between atoms: _521  and  _522
REMARK  216  A    between atoms: _521  and  _524
REMARK  217  A    between atoms: _524  and  _525
REMARK  218  A    between atoms: _525  and  _526
REMARK  219  A    between atoms: _526  and  _527
REMARK                            x       y       z     vdW  Elec       q    Type
REMARK                         _______ _______ _______ _____ _____    ______ ____
ROOT
ATOM      1  O   HOH     1     -17.651   9.819  31.704  0.00  0.00    +0.000 OA
ENDROOT
TORSDOF 0
REMARK  Name = ../refined-set-2016/3u7s/3u7s_pocket.pdb
REMARK  219 active torsions:
REMARK  status: ('A' for Active; 'I' for Inactive)
REMARK    1  A    between atoms: _1  and  _3
REMARK    2  A    between atoms: _3  and  _4
REMARK    3  A    between atoms: _3  and  _6
REMARK    4  A    between atoms: _6  and  _7
REMARK    5  A    between atoms: _7  and  _8
REMARK    6  A    between atoms: _8  and  _9
REMARK    7  A    between atoms: _18  and  _20
REMARK    8  A    between atoms: _20  and  _21
REMARK    9  A    between atoms: _20  and  _23
REMARK   10  A    between atoms: _23  and  _24
REMARK   11  A    between atoms: _27  and  _29
REMARK   12  A    between atoms: _29  and  _30
REMARK   13  A    between atoms: _29  and  _32
REMARK   14  A    between atoms: _32  and  _33
REMARK   15  A    between atoms: _36  and  _38
REMARK   16  A    between atoms: _38  and  _39
REMARK   17  A    between atoms: _38  and  _41
REMARK   18  A    between atoms: _41  and  _42
REMARK   19  A    between atoms: _45  and  _47
REMARK   20  A    between atoms: _47  and  _48
REMARK   21  A    between atoms: _47  and  _50
REMARK   22  A    between atoms: _50  and  _51
REMARK   23  A    between atoms: _54  and  _56
REMARK   24  A    between atoms: _56  and  _57
REMARK   25  A    between atoms: _59  and  _61
REMARK   26  A    between atoms: _61  and  _62
REMARK   27  A    between atoms: _65  and  _67
REMARK   28  A    between atoms: _67  and  _68
REMARK   29  A    between atoms: _67  and  _70
REMARK   30  A    between atoms: _70  and  _71
REMARK   31  A    between atoms: _74  and  _76
REMARK   32  A    between atoms: _76  and  _77
REMARK   33  A    between atoms: _76  and  _79
REMARK   34  A    between atoms: _79  and  _80
REMARK   35  A    between atoms: _83  and  _85
REMARK   36  A    between atoms: _85  and  _86
REMARK   37  A    between atoms: _85  and  _88
REMARK   38  A    between atoms: _88  and  _89
REMARK   39  A    between atoms: _92  and  _94
REMARK   40  A    between atoms: _94  and  _95
REMARK   41  A    between atoms: _94  and  _97
REMARK   42  A    between atoms: _97  and  _98
REMARK   43  A    between atoms: _101  and  _103
REMARK   44  A    between atoms: _103  and  _104
REMARK   45  A    between atoms: _103  and  _106
REMARK   46  A    between atoms: _106  and  _107
REMARK   47  A    between atoms: _107  and  _108
REMARK   48  A    between atoms: _108  and  _109
REMARK   49  A    between atoms: _109  and  _110
REMARK   50  A    between atoms: _114  and  _116
REMARK   51  A    between atoms: _116  and  _117
REMARK   52  A    between atoms: _116  and  _119
REMARK   53  A    between atoms: _119  and  _120
REMARK   54  A    between atoms: _120  and  _121
REMARK   55  A    between atoms: _125  and  _126
REMARK   56  A    between atoms: _125  and  _128
REMARK   57  A    between atoms: _128  and  _129
REMARK   58  A    between atoms: _132  and  _134
REMARK   59  A    between atoms: _134  and  _135
REMARK   60  A    between atoms: _137  and  _139
REMARK   61  A    between atoms: _139  and  _140
REMARK   62  A    between atoms: _142  and  _144
REMARK   63  A    between atoms: _144  and  _145
REMARK   64  A    between atoms: _144  and  _147
REMARK   65  A    between atoms: _147  and  _148
REMARK   66  A    between atoms: _151  and  _153
REMARK   67  A    between atoms: _153  and  _154
REMARK   68  A    between atoms: _156  and  _158
REMARK   69  A    between atoms: _158  and  _159
REMARK   70  A    between atoms: _161  and  _163
REMARK   71  A    between atoms: _163  and  _164
REMARK   72  A    between atoms: _163  and  _166
REMARK   73  A    between atoms: _166  and  _167
REMARK   74  A    between atoms: _173  and  _175
REMARK   75  A    between atoms: _175  and  _176
REMARK   76  A    between atoms: _175  and  _178
REMARK   77  A    between atoms: _178  and  _179
REMARK   78  A    between atoms: _182  and  _184
REMARK   79  A    between atoms: _184  and  _185
REMARK   80  A    between atoms: _184  and  _187
REMARK   81  A    between atoms: _187  and  _188
REMARK   82  A    between atoms: _192  and  _193
REMARK   83  A    between atoms: _198  and  _200
REMARK   84  A    between atoms: _200  and  _201
REMARK   85  A    between atoms: _200  and  _203
REMARK   86  A    between atoms: _203  and  _204
REMARK   87  A    between atoms: _207  and  _209
REMARK   88  A    between atoms: _209  and  _210
REMARK   89  A    between atoms: _209  and  _212
REMARK   90  A    between atoms: _212  and  _213
REMARK   91  A    between atoms: _218  and  _220
REMARK   92  A    between atoms: _220  and  _221
REMARK   93  A    between atoms: _220  and  _223
REMARK   94  A    between atoms: _226  and  _228
REMARK   95  A    between atoms: _228  and  _229
REMARK   96  A    between atoms: _228  and  _231
REMARK   97  A    between atoms: _231  and  _232
REMARK   98  A    between atoms: _235  and  _237
REMARK   99  A    between atoms: _237  and  _238
REMARK  100  A    between atoms: _240  and  _242
REMARK  101  A    between atoms: _242  and  _243
REMARK  102  A    between atoms: _242  and  _245
REMARK  103  A    between atoms: _245  and  _246
REMARK  104  A    between atoms: _246  and  _247
REMARK  105  A    between atoms: _247  and  _248
REMARK  106  A    between atoms: _257  and  _259
REMARK  107  A    between atoms: _259  and  _260
REMARK  108  A    between atoms: _259  and  _262
REMARK  109  A    between atoms: _262  and  _263
REMARK  110  A    between atoms: _268  and  _270
REMARK  111  A    between atoms: _270  and  _271
REMARK  112  A    between atoms: _270  and  _273
REMARK  113  A    between atoms: _273  and  _274
REMARK  114  A    between atoms: _274  and  _275
REMARK  115  A    between atoms: _275  and  _276
REMARK  116  A    between atoms: _285  and  _287
REMARK  117  A    between atoms: _287  and  _288
REMARK  118  A    between atoms: _287  and  _290
REMARK  119  A    between atoms: _290  and  _291
REMARK  120  A    between atoms: _294  and  _296
REMARK  121  A    between atoms: _296  and  _297
REMARK  122  A    between atoms: _296  and  _299
REMARK  123  A    between atoms: _299  and  _300
REMARK  124  A    between atoms: _303  and  _305
REMARK  125  A    between atoms: _305  and  _306
REMARK  126  A    between atoms: _305  and  _308
REMARK  127  A    between atoms: _308  and  _309
REMARK  128  A    between atoms: _312  and  _314
REMARK  129  A    between atoms: _314  and  _315
REMARK  130  A    between atoms: _314  and  _317
REMARK  131  A    between atoms: _317  and  _318
REMARK  132  A    between atoms: _321  and  _323
REMARK  133  A    between atoms: _323  and  _324
REMARK  134  A    between atoms: _326  and  _328
REMARK  135  A    between atoms: _328  and  _329
REMARK  136  A    between atoms: _332  and  _334
REMARK  137  A    between atoms: _334  and  _335
REMARK  138  A    between atoms: _334  and  _337
REMARK  139  A    between atoms: _337  and  _338
REMARK  140  A    between atoms: _341  and  _343
REMARK  141  A    between atoms: _343  and  _344
REMARK  142  A    between atoms: _343  and  _346
REMARK  143  A    between atoms: _346  and  _347
REMARK  144  A    between atoms: _350  and  _352
REMARK  145  A    between atoms: _352  and  _353
REMARK  146  A    between atoms: _352  and  _355
REMARK  147  A    between atoms: _355  and  _356
REMARK  148  A    between atoms: _359  and  _361
REMARK  149  A    between atoms: _361  and  _362
REMARK  150  A    between atoms: _361  and  _364
REMARK  151  A    between atoms: _364  and  _365
REMARK  152  A    between atoms: _368  and  _370
REMARK  153  A    between atoms: _370  and  _371
REMARK  154  A    between atoms: _370  and  _373
REMARK  155  A    between atoms: _373  and  _374
REMARK  156  A    between atoms: _374  and  _375
REMARK  157  A    between atoms: _375  and  _376
REMARK  158  A    between atoms: _376  and  _377
REMARK  159  A    between atoms: _381  and  _383
REMARK  160  A    between atoms: _383  and  _384
REMARK  161  A    between atoms: _383  and  _386
REMARK  162  A    between atoms: _386  and  _387
REMARK  163  A    between atoms: _387  and  _388
REMARK  164  A    between atoms: _390  and  _392
REMARK  165  A    between atoms: _392  and  _393
REMARK  166  A    between atoms: _392  and  _395
REMARK  167  A    between atoms: _395  and  _396
REMARK  168  A    between atoms: _399  and  _401
REMARK  169  A    between atoms: _401  and  _402
REMARK  170  A    between atoms: _404  and  _406
REMARK  171  A    between atoms: _406  and  _407
REMARK  172  A    between atoms: _409  and  _411
REMARK  173  A    between atoms: _411  and  _412
REMARK  174  A    between atoms: _411  and  _414
REMARK  175  A    between atoms: _414  and  _415
REMARK  176  A    between atoms: _418  and  _420
REMARK  177  A    between atoms: _420  and  _421
REMARK  178  A    between atoms: _423  and  _425
REMARK  179  A    between atoms: _425  and  _426
REMARK  180  A    between atoms: _428  and  _430
REMARK  181  A    between atoms: _430  and  _431
REMARK  182  A    between atoms: _430  and  _433
REMARK  183  A    between atoms: _433  and  _434
REMARK  184  A    between atoms: _437  and  _439
REMARK  185  A    between atoms: _439  and  _440
REMARK  186  A    between atoms: _439  and  _442
REMARK  187  A    between atoms: _445  and  _447
REMARK  188  A    between atoms: _447  and  _448
REMARK  189  A    between atoms: _447  and  _450
REMARK  190  A    between atoms: _450  and  _451
REMARK  191  A    between atoms: _455  and  _456
REMARK  192  A    between atoms: _461  and  _463
REMARK  193  A    between atoms: _463  and  _464
REMARK  194  A    between atoms: _463  and  _466
REMARK  195  A    between atoms: _466  and  _467
REMARK  196  A    between atoms: _471  and  _472
REMARK  197  A    between atoms: _477  and  _479
REMARK  198  A    between atoms: _479  and  _480
REMARK  199  A    between atoms: _479  and  _482
REMARK  200  A    between atoms: _482  and  _483
REMARK  201  A    between atoms: _486  and  _488
REMARK  202  A    between atoms: _488  and  _489
REMARK  203  A    between atoms: _488  and  _491
REMARK  204  A    between atoms: _491  and  _492
REMARK  205  A    between atoms: _497  and  _499
REMARK  206  A    between atoms: _499  and  _500
REMARK  207  A    between atoms: _499  and  _502
REMARK  208  A    between atoms: _505  and  _507
REMARK  209  A    between atoms: _507  and  _508
REMARK  210  A    between atoms: _507  and  _510
REMARK  211  A    between atoms: _510  and  _511
REMARK  212  A    between atoms: _514  and  _516
REMARK  213  A    between atoms: _516  and  _517
REMARK  214  A    between atoms: _519  and  _521
REMARK  215  A    between atoms: _521  and  _522
REMARK  216  A    between atoms: _521  and  _524
REMARK  217  A    between atoms: _524  and  _525
REMARK  218  A    between atoms: _525  and  _526
REMARK  219  A    between atoms: _526  and  _527
REMARK                            x       y       z     vdW  Elec       q    Type
REMARK                         _______ _______ _______ _____ _____    ______ ____
ROOT
ATOM      1  O   HOH     1      -0.542  15.913  23.208  0.00  0.00    +0.000 OA
ENDROOT
TORSDOF 0
REMARK  Name = ../refined-set-2016/3u7s/3u7s_pocket.pdb
REMARK  219 active torsions:
REMARK  status: ('A' for Active; 'I' for Inactive)
REMARK    1  A    between atoms: _1  and  _3
REMARK    2  A    between atoms: _3  and  _4
REMARK    3  A    between atoms: _3  and  _6
REMARK    4  A    between atoms: _6  and  _7
REMARK    5  A    between atoms: _7  and  _8
REMARK    6  A    between atoms: _8  and  _9
REMARK    7  A    between atoms: _18  and  _20
REMARK    8  A    between atoms: _20  and  _21
REMARK    9  A    between atoms: _20  and  _23
REMARK   10  A    between atoms: _23  and  _24
REMARK   11  A    between atoms: _27  and  _29
REMARK   12  A    between atoms: _29  and  _30
REMARK   13  A    between atoms: _29  and  _32
REMARK   14  A    between atoms: _32  and  _33
REMARK   15  A    between atoms: _36  and  _38
REMARK   16  A    between atoms: _38  and  _39
REMARK   17  A    between atoms: _38  and  _41
REMARK   18  A    between atoms: _41  and  _42
REMARK   19  A    between atoms: _45  and  _47
REMARK   20  A    between atoms: _47  and  _48
REMARK   21  A    between atoms: _47  and  _50
REMARK   22  A    between atoms: _50  and  _51
REMARK   23  A    between atoms: _54  and  _56
REMARK   24  A    between atoms: _56  and  _57
REMARK   25  A    between atoms: _59  and  _61
REMARK   26  A    between atoms: _61  and  _62
REMARK   27  A    between atoms: _65  and  _67
REMARK   28  A    between atoms: _67  and  _68
REMARK   29  A    between atoms: _67  and  _70
REMARK   30  A    between atoms: _70  and  _71
REMARK   31  A    between atoms: _74  and  _76
REMARK   32  A    between atoms: _76  and  _77
REMARK   33  A    between atoms: _76  and  _79
REMARK   34  A    between atoms: _79  and  _80
REMARK   35  A    between atoms: _83  and  _85
REMARK   36  A    between atoms: _85  and  _86
REMARK   37  A    between atoms: _85  and  _88
REMARK   38  A    between atoms: _88  and  _89
REMARK   39  A    between atoms: _92  and  _94
REMARK   40  A    between atoms: _94  and  _95
REMARK   41  A    between atoms: _94  and  _97
REMARK   42  A    between atoms: _97  and  _98
REMARK   43  A    between atoms: _101  and  _103
REMARK   44  A    between atoms: _103  and  _104
REMARK   45  A    between atoms: _103  and  _106
REMARK   46  A    between atoms: _106  and  _107
REMARK   47  A    between atoms: _107  and  _108
REMARK   48  A    between atoms: _108  and  _109
REMARK   49  A    between atoms: _109  and  _110
REMARK   50  A    between atoms: _114  and  _116
REMARK   51  A    between atoms: _116  and  _117
REMARK   52  A    between atoms: _116  and  _119
REMARK   53  A    between atoms: _119  and  _120
REMARK   54  A    between atoms: _120  and  _121
REMARK   55  A    between atoms: _125  and  _126
REMARK   56  A    between atoms: _125  and  _128
REMARK   57  A    between atoms: _128  and  _129
REMARK   58  A    between atoms: _132  and  _134
REMARK   59  A    between atoms: _134  and  _135
REMARK   60  A    between atoms: _137  and  _139
REMARK   61  A    between atoms: _139  and  _140
REMARK   62  A    between atoms: _142  and  _144
REMARK   63  A    between atoms: _144  and  _145
REMARK   64  A    between atoms: _144  and  _147
REMARK   65  A    between atoms: _147  and  _148
REMARK   66  A    between atoms: _151  and  _153
REMARK   67  A    between atoms: _153  and  _154
REMARK   68  A    between atoms: _156  and  _158
REMARK   69  A    between atoms: _158  and  _159
REMARK   70  A    between atoms: _161  and  _163
REMARK   71  A    between atoms: _163  and  _164
REMARK   72  A    between atoms: _163  and  _166
REMARK   73  A    between atoms: _166  and  _167
REMARK   74  A    between atoms: _173  and  _175
REMARK   75  A    between atoms: _175  and  _176
REMARK   76  A    between atoms: _175  and  _178
REMARK   77  A    between atoms: _178  and  _179
REMARK   78  A    between atoms: _182  and  _184
REMARK   79  A    between atoms: _184  and  _185
REMARK   80  A    between atoms: _184  and  _187
REMARK   81  A    between atoms: _187  and  _188
REMARK   82  A    between atoms: _192  and  _193
REMARK   83  A    between atoms: _198  and  _200
REMARK   84  A    between atoms: _200  and  _201
REMARK   85  A    between atoms: _200  and  _203
REMARK   86  A    between atoms: _203  and  _204
REMARK   87  A    between atoms: _207  and  _209
REMARK   88  A    between atoms: _209  and  _210
REMARK   89  A    between atoms: _209  and  _212
REMARK   90  A    between atoms: _212  and  _213
REMARK   91  A    between atoms: _218  and  _220
REMARK   92  A    between atoms: _220  and  _221
REMARK   93  A    between atoms: _220  and  _223
REMARK   94  A    between atoms: _226  and  _228
REMARK   95  A    between atoms: _228  and  _229
REMARK   96  A    between atoms: _228  and  _231
REMARK   97  A    between atoms: _231  and  _232
REMARK   98  A    between atoms: _235  and  _237
REMARK   99  A    between atoms: _237  and  _238
REMARK  100  A    between atoms: _240  and  _242
REMARK  101  A    between atoms: _242  and  _243
REMARK  102  A    between atoms: _242  and  _245
REMARK  103  A    between atoms: _245  and  _246
REMARK  104  A    between atoms: _246  and  _247
REMARK  105  A    between atoms: _247  and  _248
REMARK  106  A    between atoms: _257  and  _259
REMARK  107  A    between atoms: _259  and  _260
REMARK  108  A    between atoms: _259  and  _262
REMARK  109  A    between atoms: _262  and  _263
REMARK  110  A    between atoms: _268  and  _270
REMARK  111  A    between atoms: _270  and  _271
REMARK  112  A    between atoms: _270  and  _273
REMARK  113  A    between atoms: _273  and  _274
REMARK  114  A    between atoms: _274  and  _275
REMARK  115  A    between atoms: _275  and  _276
REMARK  116  A    between atoms: _285  and  _287
REMARK  117  A    between atoms: _287  and  _288
REMARK  118  A    between atoms: _287  and  _290
REMARK  119  A    between atoms: _290  and  _291
REMARK  120  A    between atoms: _294  and  _296
REMARK  121  A    between atoms: _296  and  _297
REMARK  122  A    between atoms: _296  and  _299
REMARK  123  A    between atoms: _299  and  _300
REMARK  124  A    between atoms: _303  and  _305
REMARK  125  A    between atoms: _305  and  _306
REMARK  126  A    between atoms: _305  and  _308
REMARK  127  A    between atoms: _308  and  _309
REMARK  128  A    between atoms: _312  and  _314
REMARK  129  A    between atoms: _314  and  _315
REMARK  130  A    between atoms: _314  and  _317
REMARK  131  A    between atoms: _317  and  _318
REMARK  132  A    between atoms: _321  and  _323
REMARK  133  A    between atoms: _323  and  _324
REMARK  134  A    between atoms: _326  and  _328
REMARK  135  A    between atoms: _328  and  _329
REMARK  136  A    between atoms: _332  and  _334
REMARK  137  A    between atoms: _334  and  _335
REMARK  138  A    between atoms: _334  and  _337
REMARK  139  A    between atoms: _337  and  _338
REMARK  140  A    between atoms: _341  and  _343
REMARK  141  A    between atoms: _343  and  _344
REMARK  142  A    between atoms: _343  and  _346
REMARK  143  A    between atoms: _346  and  _347
REMARK  144  A    between atoms: _350  and  _352
REMARK  145  A    between atoms: _352  and  _353
REMARK  146  A    between atoms: _352  and  _355
REMARK  147  A    between atoms: _355  and  _356
REMARK  148  A    between atoms: _359  and  _361
REMARK  149  A    between atoms: _361  and  _362
REMARK  150  A    between atoms: _361  and  _364
REMARK  151  A    between atoms: _364  and  _365
REMARK  152  A    between atoms: _368  and  _370
REMARK  153  A    between atoms: _370  and  _371
REMARK  154  A    between atoms: _370  and  _373
REMARK  155  A    between atoms: _373  and  _374
REMARK  156  A    between atoms: _374  and  _375
REMARK  157  A    between atoms: _375  and  _376
REMARK  158  A    between atoms: _376  and  _377
REMARK  159  A    between atoms: _381  and  _383
REMARK  160  A    between atoms: _383  and  _384
REMARK  161  A    between atoms: _383  and  _386
REMARK  162  A    between atoms: _386  and  _387
REMARK  163  A    between atoms: _387  and  _388
REMARK  164  A    between atoms: _390  and  _392
REMARK  165  A    between atoms: _392  and  _393
REMARK  166  A    between atoms: _392  and  _395
REMARK  167  A    between atoms: _395  and  _396
REMARK  168  A    between atoms: _399  and  _401
REMARK  169  A    between atoms: _401  and  _402
REMARK  170  A    between atoms: _404  and  _406
REMARK  171  A    between atoms: _406  and  _407
REMARK  172  A    between atoms: _409  and  _411
REMARK  173  A    between atoms: _411  and  _412
REMARK  174  A    between atoms: _411  and  _414
REMARK  175  A    between atoms: _414  and  _415
REMARK  176  A    between atoms: _418  and  _420
REMARK  177  A    between atoms: _420  and  _421
REMARK  178  A    between atoms: _423  and  _425
REMARK  179  A    between atoms: _425  and  _426
REMARK  180  A    between atoms: _428  and  _430
REMARK  181  A    between atoms: _430  and  _431
REMARK  182  A    between atoms: _430  and  _433
REMARK  183  A    between atoms: _433  and  _434
REMARK  184  A    between atoms: _437  and  _439
REMARK  185  A    between atoms: _439  and  _440
REMARK  186  A    between atoms: _439  and  _442
REMARK  187  A    between atoms: _445  and  _447
REMARK  188  A    between atoms: _447  and  _448
REMARK  189  A    between atoms: _447  and  _450
REMARK  190  A    between atoms: _450  and  _451
REMARK  191  A    between atoms: _455  and  _456
REMARK  192  A    between atoms: _461  and  _463
REMARK  193  A    between atoms: _463  and  _464
REMARK  194  A    between atoms: _463  and  _466
REMARK  195  A    between atoms: _466  and  _467
REMARK  196  A    between atoms: _471  and  _472
REMARK  197  A    between atoms: _477  and  _479
REMARK  198  A    between atoms: _479  and  _480
REMARK  199  A    between atoms: _479  and  _482
REMARK  200  A    between atoms: _482  and  _483
REMARK  201  A    between atoms: _486  and  _488
REMARK  202  A    between atoms: _488  and  _489
REMARK  203  A    between atoms: _488  and  _491
REMARK  204  A    between atoms: _491  and  _492
REMARK  205  A    between atoms: _497  and  _499
REMARK  206  A    between atoms: _499  and  _500
REMARK  207  A    between atoms: _499  and  _502
REMARK  208  A    between atoms: _505  and  _507
REMARK  209  A    between atoms: _507  and  _508
REMARK  210  A    between atoms: _507  and  _510
REMARK  211  A    between atoms: _510  and  _511
REMARK  212  A    between atoms: _514  and  _516
REMARK  213  A    between atoms: _516  and  _517
REMARK  214  A    between atoms: _519  and  _521
REMARK  215  A    between atoms: _521  and  _522
REMARK  216  A    between atoms: _521  and  _524
REMARK  217  A    between atoms: _524  and  _525
REMARK  218  A    between atoms: _525  and  _526
REMARK  219  A    between atoms: _526  and  _527
REMARK                            x       y       z     vdW  Elec       q    Type
REMARK                         _______ _______ _______ _____ _____    ______ ____
ROOT
ATOM      1  O   HOH     1      -7.908  13.885  27.143  0.00  0.00    +0.000 OA
ENDROOT
TORSDOF 0
REMARK  Name = ../refined-set-2016/3u7s/3u7s_pocket.pdb
REMARK  219 active torsions:
REMARK  status: ('A' for Active; 'I' for Inactive)
REMARK    1  A    between atoms: _1  and  _3
REMARK    2  A    between atoms: _3  and  _4
REMARK    3  A    between atoms: _3  and  _6
REMARK    4  A    between atoms: _6  and  _7
REMARK    5  A    between atoms: _7  and  _8
REMARK    6  A    between atoms: _8  and  _9
REMARK    7  A    between atoms: _18  and  _20
REMARK    8  A    between atoms: _20  and  _21
REMARK    9  A    between atoms: _20  and  _23
REMARK   10  A    between atoms: _23  and  _24
REMARK   11  A    between atoms: _27  and  _29
REMARK   12  A    between atoms: _29  and  _30
REMARK   13  A    between atoms: _29  and  _32
REMARK   14  A    between atoms: _32  and  _33
REMARK   15  A    between atoms: _36  and  _38
REMARK   16  A    between atoms: _38  and  _39
REMARK   17  A    between atoms: _38  and  _41
REMARK   18  A    between atoms: _41  and  _42
REMARK   19  A    between atoms: _45  and  _47
REMARK   20  A    between atoms: _47  and  _48
REMARK   21  A    between atoms: _47  and  _50
REMARK   22  A    between atoms: _50  and  _51
REMARK   23  A    between atoms: _54  and  _56
REMARK   24  A    between atoms: _56  and  _57
REMARK   25  A    between atoms: _59  and  _61
REMARK   26  A    between atoms: _61  and  _62
REMARK   27  A    between atoms: _65  and  _67
REMARK   28  A    between atoms: _67  and  _68
REMARK   29  A    between atoms: _67  and  _70
REMARK   30  A    between atoms: _70  and  _71
REMARK   31  A    between atoms: _74  and  _76
REMARK   32  A    between atoms: _76  and  _77
REMARK   33  A    between atoms: _76  and  _79
REMARK   34  A    between atoms: _79  and  _80
REMARK   35  A    between atoms: _83  and  _85
REMARK   36  A    between atoms: _85  and  _86
REMARK   37  A    between atoms: _85  and  _88
REMARK   38  A    between atoms: _88  and  _89
REMARK   39  A    between atoms: _92  and  _94
REMARK   40  A    between atoms: _94  and  _95
REMARK   41  A    between atoms: _94  and  _97
REMARK   42  A    between atoms: _97  and  _98
REMARK   43  A    between atoms: _101  and  _103
REMARK   44  A    between atoms: _103  and  _104
REMARK   45  A    between atoms: _103  and  _106
REMARK   46  A    between atoms: _106  and  _107
REMARK   47  A    between atoms: _107  and  _108
REMARK   48  A    between atoms: _108  and  _109
REMARK   49  A    between atoms: _109  and  _110
REMARK   50  A    between atoms: _114  and  _116
REMARK   51  A    between atoms: _116  and  _117
REMARK   52  A    between atoms: _116  and  _119
REMARK   53  A    between atoms: _119  and  _120
REMARK   54  A    between atoms: _120  and  _121
REMARK   55  A    between atoms: _125  and  _126
REMARK   56  A    between atoms: _125  and  _128
REMARK   57  A    between atoms: _128  and  _129
REMARK   58  A    between atoms: _132  and  _134
REMARK   59  A    between atoms: _134  and  _135
REMARK   60  A    between atoms: _137  and  _139
REMARK   61  A    between atoms: _139  and  _140
REMARK   62  A    between atoms: _142  and  _144
REMARK   63  A    between atoms: _144  and  _145
REMARK   64  A    between atoms: _144  and  _147
REMARK   65  A    between atoms: _147  and  _148
REMARK   66  A    between atoms: _151  and  _153
REMARK   67  A    between atoms: _153  and  _154
REMARK   68  A    between atoms: _156  and  _158
REMARK   69  A    between atoms: _158  and  _159
REMARK   70  A    between atoms: _161  and  _163
REMARK   71  A    between atoms: _163  and  _164
REMARK   72  A    between atoms: _163  and  _166
REMARK   73  A    between atoms: _166  and  _167
REMARK   74  A    between atoms: _173  and  _175
REMARK   75  A    between atoms: _175  and  _176
REMARK   76  A    between atoms: _175  and  _178
REMARK   77  A    between atoms: _178  and  _179
REMARK   78  A    between atoms: _182  and  _184
REMARK   79  A    between atoms: _184  and  _185
REMARK   80  A    between atoms: _184  and  _187
REMARK   81  A    between atoms: _187  and  _188
REMARK   82  A    between atoms: _192  and  _193
REMARK   83  A    between atoms: _198  and  _200
REMARK   84  A    between atoms: _200  and  _201
REMARK   85  A    between atoms: _200  and  _203
REMARK   86  A    between atoms: _203  and  _204
REMARK   87  A    between atoms: _207  and  _209
REMARK   88  A    between atoms: _209  and  _210
REMARK   89  A    between atoms: _209  and  _212
REMARK   90  A    between atoms: _212  and  _213
REMARK   91  A    between atoms: _218  and  _220
REMARK   92  A    between atoms: _220  and  _221
REMARK   93  A    between atoms: _220  and  _223
REMARK   94  A    between atoms: _226  and  _228
REMARK   95  A    between atoms: _228  and  _229
REMARK   96  A    between atoms: _228  and  _231
REMARK   97  A    between atoms: _231  and  _232
REMARK   98  A    between atoms: _235  and  _237
REMARK   99  A    between atoms: _237  and  _238
REMARK  100  A    between atoms: _240  and  _242
REMARK  101  A    between atoms: _242  and  _243
REMARK  102  A    between atoms: _242  and  _245
REMARK  103  A    between atoms: _245  and  _246
REMARK  104  A    between atoms: _246  and  _247
REMARK  105  A    between atoms: _247  and  _248
REMARK  106  A    between atoms: _257  and  _259
REMARK  107  A    between atoms: _259  and  _260
REMARK  108  A    between atoms: _259  and  _262
REMARK  109  A    between atoms: _262  and  _263
REMARK  110  A    between atoms: _268  and  _270
REMARK  111  A    between atoms: _270  and  _271
REMARK  112  A    between atoms: _270  and  _273
REMARK  113  A    between atoms: _273  and  _274
REMARK  114  A    between atoms: _274  and  _275
REMARK  115  A    between atoms: _275  and  _276
REMARK  116  A    between atoms: _285  and  _287
REMARK  117  A    between atoms: _287  and  _288
REMARK  118  A    between atoms: _287  and  _290
REMARK  119  A    between atoms: _290  and  _291
REMARK  120  A    between atoms: _294  and  _296
REMARK  121  A    between atoms: _296  and  _297
REMARK  122  A    between atoms: _296  and  _299
REMARK  123  A    between atoms: _299  and  _300
REMARK  124  A    between atoms: _303  and  _305
REMARK  125  A    between atoms: _305  and  _306
REMARK  126  A    between atoms: _305  and  _308
REMARK  127  A    between atoms: _308  and  _309
REMARK  128  A    between atoms: _312  and  _314
REMARK  129  A    between atoms: _314  and  _315
REMARK  130  A    between atoms: _314  and  _317
REMARK  131  A    between atoms: _317  and  _318
REMARK  132  A    between atoms: _321  and  _323
REMARK  133  A    between atoms: _323  and  _324
REMARK  134  A    between atoms: _326  and  _328
REMARK  135  A    between atoms: _328  and  _329
REMARK  136  A    between atoms: _332  and  _334
REMARK  137  A    between atoms: _334  and  _335
REMARK  138  A    between atoms: _334  and  _337
REMARK  139  A    between atoms: _337  and  _338
REMARK  140  A    between atoms: _341  and  _343
REMARK  141  A    between atoms: _343  and  _344
REMARK  142  A    between atoms: _343  and  _346
REMARK  143  A    between atoms: _346  and  _347
REMARK  144  A    between atoms: _350  and  _352
REMARK  145  A    between atoms: _352  and  _353
REMARK  146  A    between atoms: _352  and  _355
REMARK  147  A    between atoms: _355  and  _356
REMARK  148  A    between atoms: _359  and  _361
REMARK  149  A    between atoms: _361  and  _362
REMARK  150  A    between atoms: _361  and  _364
REMARK  151  A    between atoms: _364  and  _365
REMARK  152  A    between atoms: _368  and  _370
REMARK  153  A    between atoms: _370  and  _371
REMARK  154  A    between atoms: _370  and  _373
REMARK  155  A    between atoms: _373  and  _374
REMARK  156  A    between atoms: _374  and  _375
REMARK  157  A    between atoms: _375  and  _376
REMARK  158  A    between atoms: _376  and  _377
REMARK  159  A    between atoms: _381  and  _383
REMARK  160  A    between atoms: _383  and  _384
REMARK  161  A    between atoms: _383  and  _386
REMARK  162  A    between atoms: _386  and  _387
REMARK  163  A    between atoms: _387  and  _388
REMARK  164  A    between atoms: _390  and  _392
REMARK  165  A    between atoms: _392  and  _393
REMARK  166  A    between atoms: _392  and  _395
REMARK  167  A    between atoms: _395  and  _396
REMARK  168  A    between atoms: _399  and  _401
REMARK  169  A    between atoms: _401  and  _402
REMARK  170  A    between atoms: _404  and  _406
REMARK  171  A    between atoms: _406  and  _407
REMARK  172  A    between atoms: _409  and  _411
REMARK  173  A    between atoms: _411  and  _412
REMARK  174  A    between atoms: _411  and  _414
REMARK  175  A    between atoms: _414  and  _415
REMARK  176  A    between atoms: _418  and  _420
REMARK  177  A    between atoms: _420  and  _421
REMARK  178  A    between atoms: _423  and  _425
REMARK  179  A    between atoms: _425  and  _426
REMARK  180  A    between atoms: _428  and  _430
REMARK  181  A    between atoms: _430  and  _431
REMARK  182  A    between atoms: _430  and  _433
REMARK  183  A    between atoms: _433  and  _434
REMARK  184  A    between atoms: _437  and  _439
REMARK  185  A    between atoms: _439  and  _440
REMARK  186  A    between atoms: _439  and  _442
REMARK  187  A    between atoms: _445  and  _447
REMARK  188  A    between atoms: _447  and  _448
REMARK  189  A    between atoms: _447  and  _450
REMARK  190  A    between atoms: _450  and  _451
REMARK  191  A    between atoms: _455  and  _456
REMARK  192  A    between atoms: _461  and  _463
REMARK  193  A    between atoms: _463  and  _464
REMARK  194  A    between atoms: _463  and  _466
REMARK  195  A    between atoms: _466  and  _467
REMARK  196  A    between atoms: _471  and  _472
REMARK  197  A    between atoms: _477  and  _479
REMARK  198  A    between atoms: _479  and  _480
REMARK  199  A    between atoms: _479  and  _482
REMARK  200  A    between atoms: _482  and  _483
REMARK  201  A    between atoms: _486  and  _488
REMARK  202  A    between atoms: _488  and  _489
REMARK  203  A    between atoms: _488  and  _491
REMARK  204  A    between atoms: _491  and  _492
REMARK  205  A    between atoms: _497  and  _499
REMARK  206  A    between atoms: _499  and  _500
REMARK  207  A    between atoms: _499  and  _502
REMARK  208  A    between atoms: _505  and  _507
REMARK  209  A    between atoms: _507  and  _508
REMARK  210  A    between atoms: _507  and  _510
REMARK  211  A    between atoms: _510  and  _511
REMARK  212  A    between atoms: _514  and  _516
REMARK  213  A    between atoms: _516  and  _517
REMARK  214  A    between atoms: _519  and  _521
REMARK  215  A    between atoms: _521  and  _522
REMARK  216  A    between atoms: _521  and  _524
REMARK  217  A    between atoms: _524  and  _525
REMARK  218  A    between atoms: _525  and  _526
REMARK  219  A    between atoms: _526  and  _527
REMARK                            x       y       z     vdW  Elec       q    Type
REMARK                         _______ _______ _______ _____ _____    ______ ____
ROOT
ATOM      1  O   HOH     1      -6.631  22.280  22.696  0.00  0.00    +0.000 OA
ENDROOT
TORSDOF 0
REMARK  Name = ../refined-set-2016/3u7s/3u7s_pocket.pdb
REMARK  219 active torsions:
REMARK  status: ('A' for Active; 'I' for Inactive)
REMARK    1  A    between atoms: _1  and  _3
REMARK    2  A    between atoms: _3  and  _4
REMARK    3  A    between atoms: _3  and  _6
REMARK    4  A    between atoms: _6  and  _7
REMARK    5  A    between atoms: _7  and  _8
REMARK    6  A    between atoms: _8  and  _9
REMARK    7  A    between atoms: _18  and  _20
REMARK    8  A    between atoms: _20  and  _21
REMARK    9  A    between atoms: _20  and  _23
REMARK   10  A    between atoms: _23  and  _24
REMARK   11  A    between atoms: _27  and  _29
REMARK   12  A    between atoms: _29  and  _30
REMARK   13  A    between atoms: _29  and  _32
REMARK   14  A    between atoms: _32  and  _33
REMARK   15  A    between atoms: _36  and  _38
REMARK   16  A    between atoms: _38  and  _39
REMARK   17  A    between atoms: _38  and  _41
REMARK   18  A    between atoms: _41  and  _42
REMARK   19  A    between atoms: _45  and  _47
REMARK   20  A    between atoms: _47  and  _48
REMARK   21  A    between atoms: _47  and  _50
REMARK   22  A    between atoms: _50  and  _51
REMARK   23  A    between atoms: _54  and  _56
REMARK   24  A    between atoms: _56  and  _57
REMARK   25  A    between atoms: _59  and  _61
REMARK   26  A    between atoms: _61  and  _62
REMARK   27  A    between atoms: _65  and  _67
REMARK   28  A    between atoms: _67  and  _68
REMARK   29  A    between atoms: _67  and  _70
REMARK   30  A    between atoms: _70  and  _71
REMARK   31  A    between atoms: _74  and  _76
REMARK   32  A    between atoms: _76  and  _77
REMARK   33  A    between atoms: _76  and  _79
REMARK   34  A    between atoms: _79  and  _80
REMARK   35  A    between atoms: _83  and  _85
REMARK   36  A    between atoms: _85  and  _86
REMARK   37  A    between atoms: _85  and  _88
REMARK   38  A    between atoms: _88  and  _89
REMARK   39  A    between atoms: _92  and  _94
REMARK   40  A    between atoms: _94  and  _95
REMARK   41  A    between atoms: _94  and  _97
REMARK   42  A    between atoms: _97  and  _98
REMARK   43  A    between atoms: _101  and  _103
REMARK   44  A    between atoms: _103  and  _104
REMARK   45  A    between atoms: _103  and  _106
REMARK   46  A    between atoms: _106  and  _107
REMARK   47  A    between atoms: _107  and  _108
REMARK   48  A    between atoms: _108  and  _109
REMARK   49  A    between atoms: _109  and  _110
REMARK   50  A    between atoms: _114  and  _116
REMARK   51  A    between atoms: _116  and  _117
REMARK   52  A    between atoms: _116  and  _119
REMARK   53  A    between atoms: _119  and  _120
REMARK   54  A    between atoms: _120  and  _121
REMARK   55  A    between atoms: _125  and  _126
REMARK   56  A    between atoms: _125  and  _128
REMARK   57  A    between atoms: _128  and  _129
REMARK   58  A    between atoms: _132  and  _134
REMARK   59  A    between atoms: _134  and  _135
REMARK   60  A    between atoms: _137  and  _139
REMARK   61  A    between atoms: _139  and  _140
REMARK   62  A    between atoms: _142  and  _144
REMARK   63  A    between atoms: _144  and  _145
REMARK   64  A    between atoms: _144  and  _147
REMARK   65  A    between atoms: _147  and  _148
REMARK   66  A    between atoms: _151  and  _153
REMARK   67  A    between atoms: _153  and  _154
REMARK   68  A    between atoms: _156  and  _158
REMARK   69  A    between atoms: _158  and  _159
REMARK   70  A    between atoms: _161  and  _163
REMARK   71  A    between atoms: _163  and  _164
REMARK   72  A    between atoms: _163  and  _166
REMARK   73  A    between atoms: _166  and  _167
REMARK   74  A    between atoms: _173  and  _175
REMARK   75  A    between atoms: _175  and  _176
REMARK   76  A    between atoms: _175  and  _178
REMARK   77  A    between atoms: _178  and  _179
REMARK   78  A    between atoms: _182  and  _184
REMARK   79  A    between atoms: _184  and  _185
REMARK   80  A    between atoms: _184  and  _187
REMARK   81  A    between atoms: _187  and  _188
REMARK   82  A    between atoms: _192  and  _193
REMARK   83  A    between atoms: _198  and  _200
REMARK   84  A    between atoms: _200  and  _201
REMARK   85  A    between atoms: _200  and  _203
REMARK   86  A    between atoms: _203  and  _204
REMARK   87  A    between atoms: _207  and  _209
REMARK   88  A    between atoms: _209  and  _210
REMARK   89  A    between atoms: _209  and  _212
REMARK   90  A    between atoms: _212  and  _213
REMARK   91  A    between atoms: _218  and  _220
REMARK   92  A    between atoms: _220  and  _221
REMARK   93  A    between atoms: _220  and  _223
REMARK   94  A    between atoms: _226  and  _228
REMARK   95  A    between atoms: _228  and  _229
REMARK   96  A    between atoms: _228  and  _231
REMARK   97  A    between atoms: _231  and  _232
REMARK   98  A    between atoms: _235  and  _237
REMARK   99  A    between atoms: _237  and  _238
REMARK  100  A    between atoms: _240  and  _242
REMARK  101  A    between atoms: _242  and  _243
REMARK  102  A    between atoms: _242  and  _245
REMARK  103  A    between atoms: _245  and  _246
REMARK  104  A    between atoms: _246  and  _247
REMARK  105  A    between atoms: _247  and  _248
REMARK  106  A    between atoms: _257  and  _259
REMARK  107  A    between atoms: _259  and  _260
REMARK  108  A    between atoms: _259  and  _262
REMARK  109  A    between atoms: _262  and  _263
REMARK  110  A    between atoms: _268  and  _270
REMARK  111  A    between atoms: _270  and  _271
REMARK  112  A    between atoms: _270  and  _273
REMARK  113  A    between atoms: _273  and  _274
REMARK  114  A    between atoms: _274  and  _275
REMARK  115  A    between atoms: _275  and  _276
REMARK  116  A    between atoms: _285  and  _287
REMARK  117  A    between atoms: _287  and  _288
REMARK  118  A    between atoms: _287  and  _290
REMARK  119  A    between atoms: _290  and  _291
REMARK  120  A    between atoms: _294  and  _296
REMARK  121  A    between atoms: _296  and  _297
REMARK  122  A    between atoms: _296  and  _299
REMARK  123  A    between atoms: _299  and  _300
REMARK  124  A    between atoms: _303  and  _305
REMARK  125  A    between atoms: _305  and  _306
REMARK  126  A    between atoms: _305  and  _308
REMARK  127  A    between atoms: _308  and  _309
REMARK  128  A    between atoms: _312  and  _314
REMARK  129  A    between atoms: _314  and  _315
REMARK  130  A    between atoms: _314  and  _317
REMARK  131  A    between atoms: _317  and  _318
REMARK  132  A    between atoms: _321  and  _323
REMARK  133  A    between atoms: _323  and  _324
REMARK  134  A    between atoms: _326  and  _328
REMARK  135  A    between atoms: _328  and  _329
REMARK  136  A    between atoms: _332  and  _334
REMARK  137  A    between atoms: _334  and  _335
REMARK  138  A    between atoms: _334  and  _337
REMARK  139  A    between atoms: _337  and  _338
REMARK  140  A    between atoms: _341  and  _343
REMARK  141  A    between atoms: _343  and  _344
REMARK  142  A    between atoms: _343  and  _346
REMARK  143  A    between atoms: _346  and  _347
REMARK  144  A    between atoms: _350  and  _352
REMARK  145  A    between atoms: _352  and  _353
REMARK  146  A    between atoms: _352  and  _355
REMARK  147  A    between atoms: _355  and  _356
REMARK  148  A    between atoms: _359  and  _361
REMARK  149  A    between atoms: _361  and  _362
REMARK  150  A    between atoms: _361  and  _364
REMARK  151  A    between atoms: _364  and  _365
REMARK  152  A    between atoms: _368  and  _370
REMARK  153  A    between atoms: _370  and  _371
REMARK  154  A    between atoms: _370  and  _373
REMARK  155  A    between atoms: _373  and  _374
REMARK  156  A    between atoms: _374  and  _375
REMARK  157  A    between atoms: _375  and  _376
REMARK  158  A    between atoms: _376  and  _377
REMARK  159  A    between atoms: _381  and  _383
REMARK  160  A    between atoms: _383  and  _384
REMARK  161  A    between atoms: _383  and  _386
REMARK  162  A    between atoms: _386  and  _387
REMARK  163  A    between atoms: _387  and  _388
REMARK  164  A    between atoms: _390  and  _392
REMARK  165  A    between atoms: _392  and  _393
REMARK  166  A    between atoms: _392  and  _395
REMARK  167  A    between atoms: _395  and  _396
REMARK  168  A    between atoms: _399  and  _401
REMARK  169  A    between atoms: _401  and  _402
REMARK  170  A    between atoms: _404  and  _406
REMARK  171  A    between atoms: _406  and  _407
REMARK  172  A    between atoms: _409  and  _411
REMARK  173  A    between atoms: _411  and  _412
REMARK  174  A    between atoms: _411  and  _414
REMARK  175  A    between atoms: _414  and  _415
REMARK  176  A    between atoms: _418  and  _420
REMARK  177  A    between atoms: _420  and  _421
REMARK  178  A    between atoms: _423  and  _425
REMARK  179  A    between atoms: _425  and  _426
REMARK  180  A    between atoms: _428  and  _430
REMARK  181  A    between atoms: _430  and  _431
REMARK  182  A    between atoms: _430  and  _433
REMARK  183  A    between atoms: _433  and  _434
REMARK  184  A    between atoms: _437  and  _439
REMARK  185  A    between atoms: _439  and  _440
REMARK  186  A    between atoms: _439  and  _442
REMARK  187  A    between atoms: _445  and  _447
REMARK  188  A    between atoms: _447  and  _448
REMARK  189  A    between atoms: _447  and  _450
REMARK  190  A    between atoms: _450  and  _451
REMARK  191  A    between atoms: _455  and  _456
REMARK  192  A    between atoms: _461  and  _463
REMARK  193  A    between atoms: _463  and  _464
REMARK  194  A    between atoms: _463  and  _466
REMARK  195  A    between atoms: _466  and  _467
REMARK  196  A    between atoms: _471  and  _472
REMARK  197  A    between atoms: _477  and  _479
REMARK  198  A    between atoms: _479  and  _480
REMARK  199  A    between atoms: _479  and  _482
REMARK  200  A    between atoms: _482  and  _483
REMARK  201  A    between atoms: _486  and  _488
REMARK  202  A    between atoms: _488  and  _489
REMARK  203  A    between atoms: _488  and  _491
REMARK  204  A    between atoms: _491  and  _492
REMARK  205  A    between atoms: _497  and  _499
REMARK  206  A    between atoms: _499  and  _500
REMARK  207  A    between atoms: _499  and  _502
REMARK  208  A    between atoms: _505  and  _507
REMARK  209  A    between atoms: _507  and  _508
REMARK  210  A    between atoms: _507  and  _510
REMARK  211  A    between atoms: _510  and  _511
REMARK  212  A    between atoms: _514  and  _516
REMARK  213  A    between atoms: _516  and  _517
REMARK  214  A    between atoms: _519  and  _521
REMARK  215  A    between atoms: _521  and  _522
REMARK  216  A    between atoms: _521  and  _524
REMARK  217  A    between atoms: _524  and  _525
REMARK  218  A    between atoms: _525  and  _526
REMARK  219  A    between atoms: _526  and  _527
REMARK                            x       y       z     vdW  Elec       q    Type
REMARK                         _______ _______ _______ _____ _____    ______ ____
ROOT
ATOM      1  O   HOH     1     -13.516  15.953  32.906  0.00  0.00    +0.000 OA
ENDROOT
TORSDOF 0
REMARK  Name = ../refined-set-2016/3u7s/3u7s_pocket.pdb
REMARK  219 active torsions:
REMARK  status: ('A' for Active; 'I' for Inactive)
REMARK    1  A    between atoms: _1  and  _3
REMARK    2  A    between atoms: _3  and  _4
REMARK    3  A    between atoms: _3  and  _6
REMARK    4  A    between atoms: _6  and  _7
REMARK    5  A    between atoms: _7  and  _8
REMARK    6  A    between atoms: _8  and  _9
REMARK    7  A    between atoms: _18  and  _20
REMARK    8  A    between atoms: _20  and  _21
REMARK    9  A    between atoms: _20  and  _23
REMARK   10  A    between atoms: _23  and  _24
REMARK   11  A    between atoms: _27  and  _29
REMARK   12  A    between atoms: _29  and  _30
REMARK   13  A    between atoms: _29  and  _32
REMARK   14  A    between atoms: _32  and  _33
REMARK   15  A    between atoms: _36  and  _38
REMARK   16  A    between atoms: _38  and  _39
REMARK   17  A    between atoms: _38  and  _41
REMARK   18  A    between atoms: _41  and  _42
REMARK   19  A    between atoms: _45  and  _47
REMARK   20  A    between atoms: _47  and  _48
REMARK   21  A    between atoms: _47  and  _50
REMARK   22  A    between atoms: _50  and  _51
REMARK   23  A    between atoms: _54  and  _56
REMARK   24  A    between atoms: _56  and  _57
REMARK   25  A    between atoms: _59  and  _61
REMARK   26  A    between atoms: _61  and  _62
REMARK   27  A    between atoms: _65  and  _67
REMARK   28  A    between atoms: _67  and  _68
REMARK   29  A    between atoms: _67  and  _70
REMARK   30  A    between atoms: _70  and  _71
REMARK   31  A    between atoms: _74  and  _76
REMARK   32  A    between atoms: _76  and  _77
REMARK   33  A    between atoms: _76  and  _79
REMARK   34  A    between atoms: _79  and  _80
REMARK   35  A    between atoms: _83  and  _85
REMARK   36  A    between atoms: _85  and  _86
REMARK   37  A    between atoms: _85  and  _88
REMARK   38  A    between atoms: _88  and  _89
REMARK   39  A    between atoms: _92  and  _94
REMARK   40  A    between atoms: _94  and  _95
REMARK   41  A    between atoms: _94  and  _97
REMARK   42  A    between atoms: _97  and  _98
REMARK   43  A    between atoms: _101  and  _103
REMARK   44  A    between atoms: _103  and  _104
REMARK   45  A    between atoms: _103  and  _106
REMARK   46  A    between atoms: _106  and  _107
REMARK   47  A    between atoms: _107  and  _108
REMARK   48  A    between atoms: _108  and  _109
REMARK   49  A    between atoms: _109  and  _110
REMARK   50  A    between atoms: _114  and  _116
REMARK   51  A    between atoms: _116  and  _117
REMARK   52  A    between atoms: _116  and  _119
REMARK   53  A    between atoms: _119  and  _120
REMARK   54  A    between atoms: _120  and  _121
REMARK   55  A    between atoms: _125  and  _126
REMARK   56  A    between atoms: _125  and  _128
REMARK   57  A    between atoms: _128  and  _129
REMARK   58  A    between atoms: _132  and  _134
REMARK   59  A    between atoms: _134  and  _135
REMARK   60  A    between atoms: _137  and  _139
REMARK   61  A    between atoms: _139  and  _140
REMARK   62  A    between atoms: _142  and  _144
REMARK   63  A    between atoms: _144  and  _145
REMARK   64  A    between atoms: _144  and  _147
REMARK   65  A    between atoms: _147  and  _148
REMARK   66  A    between atoms: _151  and  _153
REMARK   67  A    between atoms: _153  and  _154
REMARK   68  A    between atoms: _156  and  _158
REMARK   69  A    between atoms: _158  and  _159
REMARK   70  A    between atoms: _161  and  _163
REMARK   71  A    between atoms: _163  and  _164
REMARK   72  A    between atoms: _163  and  _166
REMARK   73  A    between atoms: _166  and  _167
REMARK   74  A    between atoms: _173  and  _175
REMARK   75  A    between atoms: _175  and  _176
REMARK   76  A    between atoms: _175  and  _178
REMARK   77  A    between atoms: _178  and  _179
REMARK   78  A    between atoms: _182  and  _184
REMARK   79  A    between atoms: _184  and  _185
REMARK   80  A    between atoms: _184  and  _187
REMARK   81  A    between atoms: _187  and  _188
REMARK   82  A    between atoms: _192  and  _193
REMARK   83  A    between atoms: _198  and  _200
REMARK   84  A    between atoms: _200  and  _201
REMARK   85  A    between atoms: _200  and  _203
REMARK   86  A    between atoms: _203  and  _204
REMARK   87  A    between atoms: _207  and  _209
REMARK   88  A    between atoms: _209  and  _210
REMARK   89  A    between atoms: _209  and  _212
REMARK   90  A    between atoms: _212  and  _213
REMARK   91  A    between atoms: _218  and  _220
REMARK   92  A    between atoms: _220  and  _221
REMARK   93  A    between atoms: _220  and  _223
REMARK   94  A    between atoms: _226  and  _228
REMARK   95  A    between atoms: _228  and  _229
REMARK   96  A    between atoms: _228  and  _231
REMARK   97  A    between atoms: _231  and  _232
REMARK   98  A    between atoms: _235  and  _237
REMARK   99  A    between atoms: _237  and  _238
REMARK  100  A    between atoms: _240  and  _242
REMARK  101  A    between atoms: _242  and  _243
REMARK  102  A    between atoms: _242  and  _245
REMARK  103  A    between atoms: _245  and  _246
REMARK  104  A    between atoms: _246  and  _247
REMARK  105  A    between atoms: _247  and  _248
REMARK  106  A    between atoms: _257  and  _259
REMARK  107  A    between atoms: _259  and  _260
REMARK  108  A    between atoms: _259  and  _262
REMARK  109  A    between atoms: _262  and  _263
REMARK  110  A    between atoms: _268  and  _270
REMARK  111  A    between atoms: _270  and  _271
REMARK  112  A    between atoms: _270  and  _273
REMARK  113  A    between atoms: _273  and  _274
REMARK  114  A    between atoms: _274  and  _275
REMARK  115  A    between atoms: _275  and  _276
REMARK  116  A    between atoms: _285  and  _287
REMARK  117  A    between atoms: _287  and  _288
REMARK  118  A    between atoms: _287  and  _290
REMARK  119  A    between atoms: _290  and  _291
REMARK  120  A    between atoms: _294  and  _296
REMARK  121  A    between atoms: _296  and  _297
REMARK  122  A    between atoms: _296  and  _299
REMARK  123  A    between atoms: _299  and  _300
REMARK  124  A    between atoms: _303  and  _305
REMARK  125  A    between atoms: _305  and  _306
REMARK  126  A    between atoms: _305  and  _308
REMARK  127  A    between atoms: _308  and  _309
REMARK  128  A    between atoms: _312  and  _314
REMARK  129  A    between atoms: _314  and  _315
REMARK  130  A    between atoms: _314  and  _317
REMARK  131  A    between atoms: _317  and  _318
REMARK  132  A    between atoms: _321  and  _323
REMARK  133  A    between atoms: _323  and  _324
REMARK  134  A    between atoms: _326  and  _328
REMARK  135  A    between atoms: _328  and  _329
REMARK  136  A    between atoms: _332  and  _334
REMARK  137  A    between atoms: _334  and  _335
REMARK  138  A    between atoms: _334  and  _337
REMARK  139  A    between atoms: _337  and  _338
REMARK  140  A    between atoms: _341  and  _343
REMARK  141  A    between atoms: _343  and  _344
REMARK  142  A    between atoms: _343  and  _346
REMARK  143  A    between atoms: _346  and  _347
REMARK  144  A    between atoms: _350  and  _352
REMARK  145  A    between atoms: _352  and  _353
REMARK  146  A    between atoms: _352  and  _355
REMARK  147  A    between atoms: _355  and  _356
REMARK  148  A    between atoms: _359  and  _361
REMARK  149  A    between atoms: _361  and  _362
REMARK  150  A    between atoms: _361  and  _364
REMARK  151  A    between atoms: _364  and  _365
REMARK  152  A    between atoms: _368  and  _370
REMARK  153  A    between atoms: _370  and  _371
REMARK  154  A    between atoms: _370  and  _373
REMARK  155  A    between atoms: _373  and  _374
REMARK  156  A    between atoms: _374  and  _375
REMARK  157  A    between atoms: _375  and  _376
REMARK  158  A    between atoms: _376  and  _377
REMARK  159  A    between atoms: _381  and  _383
REMARK  160  A    between atoms: _383  and  _384
REMARK  161  A    between atoms: _383  and  _386
REMARK  162  A    between atoms: _386  and  _387
REMARK  163  A    between atoms: _387  and  _388
REMARK  164  A    between atoms: _390  and  _392
REMARK  165  A    between atoms: _392  and  _393
REMARK  166  A    between atoms: _392  and  _395
REMARK  167  A    between atoms: _395  and  _396
REMARK  168  A    between atoms: _399  and  _401
REMARK  169  A    between atoms: _401  and  _402
REMARK  170  A    between atoms: _404  and  _406
REMARK  171  A    between atoms: _406  and  _407
REMARK  172  A    between atoms: _409  and  _411
REMARK  173  A    between atoms: _411  and  _412
REMARK  174  A    between atoms: _411  and  _414
REMARK  175  A    between atoms: _414  and  _415
REMARK  176  A    between atoms: _418  and  _420
REMARK  177  A    between atoms: _420  and  _421
REMARK  178  A    between atoms: _423  and  _425
REMARK  179  A    between atoms: _425  and  _426
REMARK  180  A    between atoms: _428  and  _430
REMARK  181  A    between atoms: _430  and  _431
REMARK  182  A    between atoms: _430  and  _433
REMARK  183  A    between atoms: _433  and  _434
REMARK  184  A    between atoms: _437  and  _439
REMARK  185  A    between atoms: _439  and  _440
REMARK  186  A    between atoms: _439  and  _442
REMARK  187  A    between atoms: _445  and  _447
REMARK  188  A    between atoms: _447  and  _448
REMARK  189  A    between atoms: _447  and  _450
REMARK  190  A    between atoms: _450  and  _451
REMARK  191  A    between atoms: _455  and  _456
REMARK  192  A    between atoms: _461  and  _463
REMARK  193  A    between atoms: _463  and  _464
REMARK  194  A    between atoms: _463  and  _466
REMARK  195  A    between atoms: _466  and  _467
REMARK  196  A    between atoms: _471  and  _472
REMARK  197  A    between atoms: _477  and  _479
REMARK  198  A    between atoms: _479  and  _480
REMARK  199  A    between atoms: _479  and  _482
REMARK  200  A    between atoms: _482  and  _483
REMARK  201  A    between atoms: _486  and  _488
REMARK  202  A    between atoms: _488  and  _489
REMARK  203  A    between atoms: _488  and  _491
REMARK  204  A    between atoms: _491  and  _492
REMARK  205  A    between atoms: _497  and  _499
REMARK  206  A    between atoms: _499  and  _500
REMARK  207  A    between atoms: _499  and  _502
REMARK  208  A    between atoms: _505  and  _507
REMARK  209  A    between atoms: _507  and  _508
REMARK  210  A    between atoms: _507  and  _510
REMARK  211  A    between atoms: _510  and  _511
REMARK  212  A    between atoms: _514  and  _516
REMARK  213  A    between atoms: _516  and  _517
REMARK  214  A    between atoms: _519  and  _521
REMARK  215  A    between atoms: _521  and  _522
REMARK  216  A    between atoms: _521  and  _524
REMARK  217  A    between atoms: _524  and  _525
REMARK  218  A    between atoms: _525  and  _526
REMARK  219  A    between atoms: _526  and  _527
REMARK                            x       y       z     vdW  Elec       q    Type
REMARK                         _______ _______ _______ _____ _____    ______ ____
ROOT
ATOM      1  O   HOH     1     -16.379  11.370  36.159  0.00  0.00    +0.000 OA
ENDROOT
TORSDOF 0
REMARK  Name = ../refined-set-2016/3u7s/3u7s_pocket.pdb
REMARK  219 active torsions:
REMARK  status: ('A' for Active; 'I' for Inactive)
REMARK    1  A    between atoms: _1  and  _3
REMARK    2  A    between atoms: _3  and  _4
REMARK    3  A    between atoms: _3  and  _6
REMARK    4  A    between atoms: _6  and  _7
REMARK    5  A    between atoms: _7  and  _8
REMARK    6  A    between atoms: _8  and  _9
REMARK    7  A    between atoms: _18  and  _20
REMARK    8  A    between atoms: _20  and  _21
REMARK    9  A    between atoms: _20  and  _23
REMARK   10  A    between atoms: _23  and  _24
REMARK   11  A    between atoms: _27  and  _29
REMARK   12  A    between atoms: _29  and  _30
REMARK   13  A    between atoms: _29  and  _32
REMARK   14  A    between atoms: _32  and  _33
REMARK   15  A    between atoms: _36  and  _38
REMARK   16  A    between atoms: _38  and  _39
REMARK   17  A    between atoms: _38  and  _41
REMARK   18  A    between atoms: _41  and  _42
REMARK   19  A    between atoms: _45  and  _47
REMARK   20  A    between atoms: _47  and  _48
REMARK   21  A    between atoms: _47  and  _50
REMARK   22  A    between atoms: _50  and  _51
REMARK   23  A    between atoms: _54  and  _56
REMARK   24  A    between atoms: _56  and  _57
REMARK   25  A    between atoms: _59  and  _61
REMARK   26  A    between atoms: _61  and  _62
REMARK   27  A    between atoms: _65  and  _67
REMARK   28  A    between atoms: _67  and  _68
REMARK   29  A    between atoms: _67  and  _70
REMARK   30  A    between atoms: _70  and  _71
REMARK   31  A    between atoms: _74  and  _76
REMARK   32  A    between atoms: _76  and  _77
REMARK   33  A    between atoms: _76  and  _79
REMARK   34  A    between atoms: _79  and  _80
REMARK   35  A    between atoms: _83  and  _85
REMARK   36  A    between atoms: _85  and  _86
REMARK   37  A    between atoms: _85  and  _88
REMARK   38  A    between atoms: _88  and  _89
REMARK   39  A    between atoms: _92  and  _94
REMARK   40  A    between atoms: _94  and  _95
REMARK   41  A    between atoms: _94  and  _97
REMARK   42  A    between atoms: _97  and  _98
REMARK   43  A    between atoms: _101  and  _103
REMARK   44  A    between atoms: _103  and  _104
REMARK   45  A    between atoms: _103  and  _106
REMARK   46  A    between atoms: _106  and  _107
REMARK   47  A    between atoms: _107  and  _108
REMARK   48  A    between atoms: _108  and  _109
REMARK   49  A    between atoms: _109  and  _110
REMARK   50  A    between atoms: _114  and  _116
REMARK   51  A    between atoms: _116  and  _117
REMARK   52  A    between atoms: _116  and  _119
REMARK   53  A    between atoms: _119  and  _120
REMARK   54  A    between atoms: _120  and  _121
REMARK   55  A    between atoms: _125  and  _126
REMARK   56  A    between atoms: _125  and  _128
REMARK   57  A    between atoms: _128  and  _129
REMARK   58  A    between atoms: _132  and  _134
REMARK   59  A    between atoms: _134  and  _135
REMARK   60  A    between atoms: _137  and  _139
REMARK   61  A    between atoms: _139  and  _140
REMARK   62  A    between atoms: _142  and  _144
REMARK   63  A    between atoms: _144  and  _145
REMARK   64  A    between atoms: _144  and  _147
REMARK   65  A    between atoms: _147  and  _148
REMARK   66  A    between atoms: _151  and  _153
REMARK   67  A    between atoms: _153  and  _154
REMARK   68  A    between atoms: _156  and  _158
REMARK   69  A    between atoms: _158  and  _159
REMARK   70  A    between atoms: _161  and  _163
REMARK   71  A    between atoms: _163  and  _164
REMARK   72  A    between atoms: _163  and  _166
REMARK   73  A    between atoms: _166  and  _167
REMARK   74  A    between atoms: _173  and  _175
REMARK   75  A    between atoms: _175  and  _176
REMARK   76  A    between atoms: _175  and  _178
REMARK   77  A    between atoms: _178  and  _179
REMARK   78  A    between atoms: _182  and  _184
REMARK   79  A    between atoms: _184  and  _185
REMARK   80  A    between atoms: _184  and  _187
REMARK   81  A    between atoms: _187  and  _188
REMARK   82  A    between atoms: _192  and  _193
REMARK   83  A    between atoms: _198  and  _200
REMARK   84  A    between atoms: _200  and  _201
REMARK   85  A    between atoms: _200  and  _203
REMARK   86  A    between atoms: _203  and  _204
REMARK   87  A    between atoms: _207  and  _209
REMARK   88  A    between atoms: _209  and  _210
REMARK   89  A    between atoms: _209  and  _212
REMARK   90  A    between atoms: _212  and  _213
REMARK   91  A    between atoms: _218  and  _220
REMARK   92  A    between atoms: _220  and  _221
REMARK   93  A    between atoms: _220  and  _223
REMARK   94  A    between atoms: _226  and  _228
REMARK   95  A    between atoms: _228  and  _229
REMARK   96  A    between atoms: _228  and  _231
REMARK   97  A    between atoms: _231  and  _232
REMARK   98  A    between atoms: _235  and  _237
REMARK   99  A    between atoms: _237  and  _238
REMARK  100  A    between atoms: _240  and  _242
REMARK  101  A    between atoms: _242  and  _243
REMARK  102  A    between atoms: _242  and  _245
REMARK  103  A    between atoms: _245  and  _246
REMARK  104  A    between atoms: _246  and  _247
REMARK  105  A    between atoms: _247  and  _248
REMARK  106  A    between atoms: _257  and  _259
REMARK  107  A    between atoms: _259  and  _260
REMARK  108  A    between atoms: _259  and  _262
REMARK  109  A    between atoms: _262  and  _263
REMARK  110  A    between atoms: _268  and  _270
REMARK  111  A    between atoms: _270  and  _271
REMARK  112  A    between atoms: _270  and  _273
REMARK  113  A    between atoms: _273  and  _274
REMARK  114  A    between atoms: _274  and  _275
REMARK  115  A    between atoms: _275  and  _276
REMARK  116  A    between atoms: _285  and  _287
REMARK  117  A    between atoms: _287  and  _288
REMARK  118  A    between atoms: _287  and  _290
REMARK  119  A    between atoms: _290  and  _291
REMARK  120  A    between atoms: _294  and  _296
REMARK  121  A    between atoms: _296  and  _297
REMARK  122  A    between atoms: _296  and  _299
REMARK  123  A    between atoms: _299  and  _300
REMARK  124  A    between atoms: _303  and  _305
REMARK  125  A    between atoms: _305  and  _306
REMARK  126  A    between atoms: _305  and  _308
REMARK  127  A    between atoms: _308  and  _309
REMARK  128  A    between atoms: _312  and  _314
REMARK  129  A    between atoms: _314  and  _315
REMARK  130  A    between atoms: _314  and  _317
REMARK  131  A    between atoms: _317  and  _318
REMARK  132  A    between atoms: _321  and  _323
REMARK  133  A    between atoms: _323  and  _324
REMARK  134  A    between atoms: _326  and  _328
REMARK  135  A    between atoms: _328  and  _329
REMARK  136  A    between atoms: _332  and  _334
REMARK  137  A    between atoms: _334  and  _335
REMARK  138  A    between atoms: _334  and  _337
REMARK  139  A    between atoms: _337  and  _338
REMARK  140  A    between atoms: _341  and  _343
REMARK  141  A    between atoms: _343  and  _344
REMARK  142  A    between atoms: _343  and  _346
REMARK  143  A    between atoms: _346  and  _347
REMARK  144  A    between atoms: _350  and  _352
REMARK  145  A    between atoms: _352  and  _353
REMARK  146  A    between atoms: _352  and  _355
REMARK  147  A    between atoms: _355  and  _356
REMARK  148  A    between atoms: _359  and  _361
REMARK  149  A    between atoms: _361  and  _362
REMARK  150  A    between atoms: _361  and  _364
REMARK  151  A    between atoms: _364  and  _365
REMARK  152  A    between atoms: _368  and  _370
REMARK  153  A    between atoms: _370  and  _371
REMARK  154  A    between atoms: _370  and  _373
REMARK  155  A    between atoms: _373  and  _374
REMARK  156  A    between atoms: _374  and  _375
REMARK  157  A    between atoms: _375  and  _376
REMARK  158  A    between atoms: _376  and  _377
REMARK  159  A    between atoms: _381  and  _383
REMARK  160  A    between atoms: _383  and  _384
REMARK  161  A    between atoms: _383  and  _386
REMARK  162  A    between atoms: _386  and  _387
REMARK  163  A    between atoms: _387  and  _388
REMARK  164  A    between atoms: _390  and  _392
REMARK  165  A    between atoms: _392  and  _393
REMARK  166  A    between atoms: _392  and  _395
REMARK  167  A    between atoms: _395  and  _396
REMARK  168  A    between atoms: _399  and  _401
REMARK  169  A    between atoms: _401  and  _402
REMARK  170  A    between atoms: _404  and  _406
REMARK  171  A    between atoms: _406  and  _407
REMARK  172  A    between atoms: _409  and  _411
REMARK  173  A    between atoms: _411  and  _412
REMARK  174  A    between atoms: _411  and  _414
REMARK  175  A    between atoms: _414  and  _415
REMARK  176  A    between atoms: _418  and  _420
REMARK  177  A    between atoms: _420  and  _421
REMARK  178  A    between atoms: _423  and  _425
REMARK  179  A    between atoms: _425  and  _426
REMARK  180  A    between atoms: _428  and  _430
REMARK  181  A    between atoms: _430  and  _431
REMARK  182  A    between atoms: _430  and  _433
REMARK  183  A    between atoms: _433  and  _434
REMARK  184  A    between atoms: _437  and  _439
REMARK  185  A    between atoms: _439  and  _440
REMARK  186  A    between atoms: _439  and  _442
REMARK  187  A    between atoms: _445  and  _447
REMARK  188  A    between atoms: _447  and  _448
REMARK  189  A    between atoms: _447  and  _450
REMARK  190  A    between atoms: _450  and  _451
REMARK  191  A    between atoms: _455  and  _456
REMARK  192  A    between atoms: _461  and  _463
REMARK  193  A    between atoms: _463  and  _464
REMARK  194  A    between atoms: _463  and  _466
REMARK  195  A    between atoms: _466  and  _467
REMARK  196  A    between atoms: _471  and  _472
REMARK  197  A    between atoms: _477  and  _479
REMARK  198  A    between atoms: _479  and  _480
REMARK  199  A    between atoms: _479  and  _482
REMARK  200  A    between atoms: _482  and  _483
REMARK  201  A    between atoms: _486  and  _488
REMARK  202  A    between atoms: _488  and  _489
REMARK  203  A    between atoms: _488  and  _491
REMARK  204  A    between atoms: _491  and  _492
REMARK  205  A    between atoms: _497  and  _499
REMARK  206  A    between atoms: _499  and  _500
REMARK  207  A    between atoms: _499  and  _502
REMARK  208  A    between atoms: _505  and  _507
REMARK  209  A    between atoms: _507  and  _508
REMARK  210  A    between atoms: _507  and  _510
REMARK  211  A    between atoms: _510  and  _511
REMARK  212  A    between atoms: _514  and  _516
REMARK  213  A    between atoms: _516  and  _517
REMARK  214  A    between atoms: _519  and  _521
REMARK  215  A    between atoms: _521  and  _522
REMARK  216  A    between atoms: _521  and  _524
REMARK  217  A    between atoms: _524  and  _525
REMARK  218  A    between atoms: _525  and  _526
REMARK  219  A    between atoms: _526  and  _527
REMARK                            x       y       z     vdW  Elec       q    Type
REMARK                         _______ _______ _______ _____ _____    ______ ____
ROOT
ATOM      1  O   HOH     1     -15.621  11.384  32.044  0.00  0.00    +0.000 OA
ENDROOT
TORSDOF 0
REMARK  Name = ../refined-set-2016/3u7s/3u7s_pocket.pdb
REMARK  219 active torsions:
REMARK  status: ('A' for Active; 'I' for Inactive)
REMARK    1  A    between atoms: _1  and  _3
REMARK    2  A    between atoms: _3  and  _4
REMARK    3  A    between atoms: _3  and  _6
REMARK    4  A    between atoms: _6  and  _7
REMARK    5  A    between atoms: _7  and  _8
REMARK    6  A    between atoms: _8  and  _9
REMARK    7  A    between atoms: _18  and  _20
REMARK    8  A    between atoms: _20  and  _21
REMARK    9  A    between atoms: _20  and  _23
REMARK   10  A    between atoms: _23  and  _24
REMARK   11  A    between atoms: _27  and  _29
REMARK   12  A    between atoms: _29  and  _30
REMARK   13  A    between atoms: _29  and  _32
REMARK   14  A    between atoms: _32  and  _33
REMARK   15  A    between atoms: _36  and  _38
REMARK   16  A    between atoms: _38  and  _39
REMARK   17  A    between atoms: _38  and  _41
REMARK   18  A    between atoms: _41  and  _42
REMARK   19  A    between atoms: _45  and  _47
REMARK   20  A    between atoms: _47  and  _48
REMARK   21  A    between atoms: _47  and  _50
REMARK   22  A    between atoms: _50  and  _51
REMARK   23  A    between atoms: _54  and  _56
REMARK   24  A    between atoms: _56  and  _57
REMARK   25  A    between atoms: _59  and  _61
REMARK   26  A    between atoms: _61  and  _62
REMARK   27  A    between atoms: _65  and  _67
REMARK   28  A    between atoms: _67  and  _68
REMARK   29  A    between atoms: _67  and  _70
REMARK   30  A    between atoms: _70  and  _71
REMARK   31  A    between atoms: _74  and  _76
REMARK   32  A    between atoms: _76  and  _77
REMARK   33  A    between atoms: _76  and  _79
REMARK   34  A    between atoms: _79  and  _80
REMARK   35  A    between atoms: _83  and  _85
REMARK   36  A    between atoms: _85  and  _86
REMARK   37  A    between atoms: _85  and  _88
REMARK   38  A    between atoms: _88  and  _89
REMARK   39  A    between atoms: _92  and  _94
REMARK   40  A    between atoms: _94  and  _95
REMARK   41  A    between atoms: _94  and  _97
REMARK   42  A    between atoms: _97  and  _98
REMARK   43  A    between atoms: _101  and  _103
REMARK   44  A    between atoms: _103  and  _104
REMARK   45  A    between atoms: _103  and  _106
REMARK   46  A    between atoms: _106  and  _107
REMARK   47  A    between atoms: _107  and  _108
REMARK   48  A    between atoms: _108  and  _109
REMARK   49  A    between atoms: _109  and  _110
REMARK   50  A    between atoms: _114  and  _116
REMARK   51  A    between atoms: _116  and  _117
REMARK   52  A    between atoms: _116  and  _119
REMARK   53  A    between atoms: _119  and  _120
REMARK   54  A    between atoms: _120  and  _121
REMARK   55  A    between atoms: _125  and  _126
REMARK   56  A    between atoms: _125  and  _128
REMARK   57  A    between atoms: _128  and  _129
REMARK   58  A    between atoms: _132  and  _134
REMARK   59  A    between atoms: _134  and  _135
REMARK   60  A    between atoms: _137  and  _139
REMARK   61  A    between atoms: _139  and  _140
REMARK   62  A    between atoms: _142  and  _144
REMARK   63  A    between atoms: _144  and  _145
REMARK   64  A    between atoms: _144  and  _147
REMARK   65  A    between atoms: _147  and  _148
REMARK   66  A    between atoms: _151  and  _153
REMARK   67  A    between atoms: _153  and  _154
REMARK   68  A    between atoms: _156  and  _158
REMARK   69  A    between atoms: _158  and  _159
REMARK   70  A    between atoms: _161  and  _163
REMARK   71  A    between atoms: _163  and  _164
REMARK   72  A    between atoms: _163  and  _166
REMARK   73  A    between atoms: _166  and  _167
REMARK   74  A    between atoms: _173  and  _175
REMARK   75  A    between atoms: _175  and  _176
REMARK   76  A    between atoms: _175  and  _178
REMARK   77  A    between atoms: _178  and  _179
REMARK   78  A    between atoms: _182  and  _184
REMARK   79  A    between atoms: _184  and  _185
REMARK   80  A    between atoms: _184  and  _187
REMARK   81  A    between atoms: _187  and  _188
REMARK   82  A    between atoms: _192  and  _193
REMARK   83  A    between atoms: _198  and  _200
REMARK   84  A    between atoms: _200  and  _201
REMARK   85  A    between atoms: _200  and  _203
REMARK   86  A    between atoms: _203  and  _204
REMARK   87  A    between atoms: _207  and  _209
REMARK   88  A    between atoms: _209  and  _210
REMARK   89  A    between atoms: _209  and  _212
REMARK   90  A    between atoms: _212  and  _213
REMARK   91  A    between atoms: _218  and  _220
REMARK   92  A    between atoms: _220  and  _221
REMARK   93  A    between atoms: _220  and  _223
REMARK   94  A    between atoms: _226  and  _228
REMARK   95  A    between atoms: _228  and  _229
REMARK   96  A    between atoms: _228  and  _231
REMARK   97  A    between atoms: _231  and  _232
REMARK   98  A    between atoms: _235  and  _237
REMARK   99  A    between atoms: _237  and  _238
REMARK  100  A    between atoms: _240  and  _242
REMARK  101  A    between atoms: _242  and  _243
REMARK  102  A    between atoms: _242  and  _245
REMARK  103  A    between atoms: _245  and  _246
REMARK  104  A    between atoms: _246  and  _247
REMARK  105  A    between atoms: _247  and  _248
REMARK  106  A    between atoms: _257  and  _259
REMARK  107  A    between atoms: _259  and  _260
REMARK  108  A    between atoms: _259  and  _262
REMARK  109  A    between atoms: _262  and  _263
REMARK  110  A    between atoms: _268  and  _270
REMARK  111  A    between atoms: _270  and  _271
REMARK  112  A    between atoms: _270  and  _273
REMARK  113  A    between atoms: _273  and  _274
REMARK  114  A    between atoms: _274  and  _275
REMARK  115  A    between atoms: _275  and  _276
REMARK  116  A    between atoms: _285  and  _287
REMARK  117  A    between atoms: _287  and  _288
REMARK  118  A    between atoms: _287  and  _290
REMARK  119  A    between atoms: _290  and  _291
REMARK  120  A    between atoms: _294  and  _296
REMARK  121  A    between atoms: _296  and  _297
REMARK  122  A    between atoms: _296  and  _299
REMARK  123  A    between atoms: _299  and  _300
REMARK  124  A    between atoms: _303  and  _305
REMARK  125  A    between atoms: _305  and  _306
REMARK  126  A    between atoms: _305  and  _308
REMARK  127  A    between atoms: _308  and  _309
REMARK  128  A    between atoms: _312  and  _314
REMARK  129  A    between atoms: _314  and  _315
REMARK  130  A    between atoms: _314  and  _317
REMARK  131  A    between atoms: _317  and  _318
REMARK  132  A    between atoms: _321  and  _323
REMARK  133  A    between atoms: _323  and  _324
REMARK  134  A    between atoms: _326  and  _328
REMARK  135  A    between atoms: _328  and  _329
REMARK  136  A    between atoms: _332  and  _334
REMARK  137  A    between atoms: _334  and  _335
REMARK  138  A    between atoms: _334  and  _337
REMARK  139  A    between atoms: _337  and  _338
REMARK  140  A    between atoms: _341  and  _343
REMARK  141  A    between atoms: _343  and  _344
REMARK  142  A    between atoms: _343  and  _346
REMARK  143  A    between atoms: _346  and  _347
REMARK  144  A    between atoms: _350  and  _352
REMARK  145  A    between atoms: _352  and  _353
REMARK  146  A    between atoms: _352  and  _355
REMARK  147  A    between atoms: _355  and  _356
REMARK  148  A    between atoms: _359  and  _361
REMARK  149  A    between atoms: _361  and  _362
REMARK  150  A    between atoms: _361  and  _364
REMARK  151  A    between atoms: _364  and  _365
REMARK  152  A    between atoms: _368  and  _370
REMARK  153  A    between atoms: _370  and  _371
REMARK  154  A    between atoms: _370  and  _373
REMARK  155  A    between atoms: _373  and  _374
REMARK  156  A    between atoms: _374  and  _375
REMARK  157  A    between atoms: _375  and  _376
REMARK  158  A    between atoms: _376  and  _377
REMARK  159  A    between atoms: _381  and  _383
REMARK  160  A    between atoms: _383  and  _384
REMARK  161  A    between atoms: _383  and  _386
REMARK  162  A    between atoms: _386  and  _387
REMARK  163  A    between atoms: _387  and  _388
REMARK  164  A    between atoms: _390  and  _392
REMARK  165  A    between atoms: _392  and  _393
REMARK  166  A    between atoms: _392  and  _395
REMARK  167  A    between atoms: _395  and  _396
REMARK  168  A    between atoms: _399  and  _401
REMARK  169  A    between atoms: _401  and  _402
REMARK  170  A    between atoms: _404  and  _406
REMARK  171  A    between atoms: _406  and  _407
REMARK  172  A    between atoms: _409  and  _411
REMARK  173  A    between atoms: _411  and  _412
REMARK  174  A    between atoms: _411  and  _414
REMARK  175  A    between atoms: _414  and  _415
REMARK  176  A    between atoms: _418  and  _420
REMARK  177  A    between atoms: _420  and  _421
REMARK  178  A    between atoms: _423  and  _425
REMARK  179  A    between atoms: _425  and  _426
REMARK  180  A    between atoms: _428  and  _430
REMARK  181  A    between atoms: _430  and  _431
REMARK  182  A    between atoms: _430  and  _433
REMARK  183  A    between atoms: _433  and  _434
REMARK  184  A    between atoms: _437  and  _439
REMARK  185  A    between atoms: _439  and  _440
REMARK  186  A    between atoms: _439  and  _442
REMARK  187  A    between atoms: _445  and  _447
REMARK  188  A    between atoms: _447  and  _448
REMARK  189  A    between atoms: _447  and  _450
REMARK  190  A    between atoms: _450  and  _451
REMARK  191  A    between atoms: _455  and  _456
REMARK  192  A    between atoms: _461  and  _463
REMARK  193  A    between atoms: _463  and  _464
REMARK  194  A    between atoms: _463  and  _466
REMARK  195  A    between atoms: _466  and  _467
REMARK  196  A    between atoms: _471  and  _472
REMARK  197  A    between atoms: _477  and  _479
REMARK  198  A    between atoms: _479  and  _480
REMARK  199  A    between atoms: _479  and  _482
REMARK  200  A    between atoms: _482  and  _483
REMARK  201  A    between atoms: _486  and  _488
REMARK  202  A    between atoms: _488  and  _489
REMARK  203  A    between atoms: _488  and  _491
REMARK  204  A    between atoms: _491  and  _492
REMARK  205  A    between atoms: _497  and  _499
REMARK  206  A    between atoms: _499  and  _500
REMARK  207  A    between atoms: _499  and  _502
REMARK  208  A    between atoms: _505  and  _507
REMARK  209  A    between atoms: _507  and  _508
REMARK  210  A    between atoms: _507  and  _510
REMARK  211  A    between atoms: _510  and  _511
REMARK  212  A    between atoms: _514  and  _516
REMARK  213  A    between atoms: _516  and  _517
REMARK  214  A    between atoms: _519  and  _521
REMARK  215  A    between atoms: _521  and  _522
REMARK  216  A    between atoms: _521  and  _524
REMARK  217  A    between atoms: _524  and  _525
REMARK  218  A    between atoms: _525  and  _526
REMARK  219  A    between atoms: _526  and  _527
REMARK                            x       y       z     vdW  Elec       q    Type
REMARK                         _______ _______ _______ _____ _____    ______ ____
ROOT
ATOM      1  O   HOH     1     -18.117   8.917  24.721  0.00  0.00    +0.000 OA
ENDROOT
TORSDOF 0
REMARK  Name = ../refined-set-2016/3u7s/3u7s_pocket.pdb
REMARK  219 active torsions:
REMARK  status: ('A' for Active; 'I' for Inactive)
REMARK    1  A    between atoms: _1  and  _3
REMARK    2  A    between atoms: _3  and  _4
REMARK    3  A    between atoms: _3  and  _6
REMARK    4  A    between atoms: _6  and  _7
REMARK    5  A    between atoms: _7  and  _8
REMARK    6  A    between atoms: _8  and  _9
REMARK    7  A    between atoms: _18  and  _20
REMARK    8  A    between atoms: _20  and  _21
REMARK    9  A    between atoms: _20  and  _23
REMARK   10  A    between atoms: _23  and  _24
REMARK   11  A    between atoms: _27  and  _29
REMARK   12  A    between atoms: _29  and  _30
REMARK   13  A    between atoms: _29  and  _32
REMARK   14  A    between atoms: _32  and  _33
REMARK   15  A    between atoms: _36  and  _38
REMARK   16  A    between atoms: _38  and  _39
REMARK   17  A    between atoms: _38  and  _41
REMARK   18  A    between atoms: _41  and  _42
REMARK   19  A    between atoms: _45  and  _47
REMARK   20  A    between atoms: _47  and  _48
REMARK   21  A    between atoms: _47  and  _50
REMARK   22  A    between atoms: _50  and  _51
REMARK   23  A    between atoms: _54  and  _56
REMARK   24  A    between atoms: _56  and  _57
REMARK   25  A    between atoms: _59  and  _61
REMARK   26  A    between atoms: _61  and  _62
REMARK   27  A    between atoms: _65  and  _67
REMARK   28  A    between atoms: _67  and  _68
REMARK   29  A    between atoms: _67  and  _70
REMARK   30  A    between atoms: _70  and  _71
REMARK   31  A    between atoms: _74  and  _76
REMARK   32  A    between atoms: _76  and  _77
REMARK   33  A    between atoms: _76  and  _79
REMARK   34  A    between atoms: _79  and  _80
REMARK   35  A    between atoms: _83  and  _85
REMARK   36  A    between atoms: _85  and  _86
REMARK   37  A    between atoms: _85  and  _88
REMARK   38  A    between atoms: _88  and  _89
REMARK   39  A    between atoms: _92  and  _94
REMARK   40  A    between atoms: _94  and  _95
REMARK   41  A    between atoms: _94  and  _97
REMARK   42  A    between atoms: _97  and  _98
REMARK   43  A    between atoms: _101  and  _103
REMARK   44  A    between atoms: _103  and  _104
REMARK   45  A    between atoms: _103  and  _106
REMARK   46  A    between atoms: _106  and  _107
REMARK   47  A    between atoms: _107  and  _108
REMARK   48  A    between atoms: _108  and  _109
REMARK   49  A    between atoms: _109  and  _110
REMARK   50  A    between atoms: _114  and  _116
REMARK   51  A    between atoms: _116  and  _117
REMARK   52  A    between atoms: _116  and  _119
REMARK   53  A    between atoms: _119  and  _120
REMARK   54  A    between atoms: _120  and  _121
REMARK   55  A    between atoms: _125  and  _126
REMARK   56  A    between atoms: _125  and  _128
REMARK   57  A    between atoms: _128  and  _129
REMARK   58  A    between atoms: _132  and  _134
REMARK   59  A    between atoms: _134  and  _135
REMARK   60  A    between atoms: _137  and  _139
REMARK   61  A    between atoms: _139  and  _140
REMARK   62  A    between atoms: _142  and  _144
REMARK   63  A    between atoms: _144  and  _145
REMARK   64  A    between atoms: _144  and  _147
REMARK   65  A    between atoms: _147  and  _148
REMARK   66  A    between atoms: _151  and  _153
REMARK   67  A    between atoms: _153  and  _154
REMARK   68  A    between atoms: _156  and  _158
REMARK   69  A    between atoms: _158  and  _159
REMARK   70  A    between atoms: _161  and  _163
REMARK   71  A    between atoms: _163  and  _164
REMARK   72  A    between atoms: _163  and  _166
REMARK   73  A    between atoms: _166  and  _167
REMARK   74  A    between atoms: _173  and  _175
REMARK   75  A    between atoms: _175  and  _176
REMARK   76  A    between atoms: _175  and  _178
REMARK   77  A    between atoms: _178  and  _179
REMARK   78  A    between atoms: _182  and  _184
REMARK   79  A    between atoms: _184  and  _185
REMARK   80  A    between atoms: _184  and  _187
REMARK   81  A    between atoms: _187  and  _188
REMARK   82  A    between atoms: _192  and  _193
REMARK   83  A    between atoms: _198  and  _200
REMARK   84  A    between atoms: _200  and  _201
REMARK   85  A    between atoms: _200  and  _203
REMARK   86  A    between atoms: _203  and  _204
REMARK   87  A    between atoms: _207  and  _209
REMARK   88  A    between atoms: _209  and  _210
REMARK   89  A    between atoms: _209  and  _212
REMARK   90  A    between atoms: _212  and  _213
REMARK   91  A    between atoms: _218  and  _220
REMARK   92  A    between atoms: _220  and  _221
REMARK   93  A    between atoms: _220  and  _223
REMARK   94  A    between atoms: _226  and  _228
REMARK   95  A    between atoms: _228  and  _229
REMARK   96  A    between atoms: _228  and  _231
REMARK   97  A    between atoms: _231  and  _232
REMARK   98  A    between atoms: _235  and  _237
REMARK   99  A    between atoms: _237  and  _238
REMARK  100  A    between atoms: _240  and  _242
REMARK  101  A    between atoms: _242  and  _243
REMARK  102  A    between atoms: _242  and  _245
REMARK  103  A    between atoms: _245  and  _246
REMARK  104  A    between atoms: _246  and  _247
REMARK  105  A    between atoms: _247  and  _248
REMARK  106  A    between atoms: _257  and  _259
REMARK  107  A    between atoms: _259  and  _260
REMARK  108  A    between atoms: _259  and  _262
REMARK  109  A    between atoms: _262  and  _263
REMARK  110  A    between atoms: _268  and  _270
REMARK  111  A    between atoms: _270  and  _271
REMARK  112  A    between atoms: _270  and  _273
REMARK  113  A    between atoms: _273  and  _274
REMARK  114  A    between atoms: _274  and  _275
REMARK  115  A    between atoms: _275  and  _276
REMARK  116  A    between atoms: _285  and  _287
REMARK  117  A    between atoms: _287  and  _288
REMARK  118  A    between atoms: _287  and  _290
REMARK  119  A    between atoms: _290  and  _291
REMARK  120  A    between atoms: _294  and  _296
REMARK  121  A    between atoms: _296  and  _297
REMARK  122  A    between atoms: _296  and  _299
REMARK  123  A    between atoms: _299  and  _300
REMARK  124  A    between atoms: _303  and  _305
REMARK  125  A    between atoms: _305  and  _306
REMARK  126  A    between atoms: _305  and  _308
REMARK  127  A    between atoms: _308  and  _309
REMARK  128  A    between atoms: _312  and  _314
REMARK  129  A    between atoms: _314  and  _315
REMARK  130  A    between atoms: _314  and  _317
REMARK  131  A    between atoms: _317  and  _318
REMARK  132  A    between atoms: _321  and  _323
REMARK  133  A    between atoms: _323  and  _324
REMARK  134  A    between atoms: _326  and  _328
REMARK  135  A    between atoms: _328  and  _329
REMARK  136  A    between atoms: _332  and  _334
REMARK  137  A    between atoms: _334  and  _335
REMARK  138  A    between atoms: _334  and  _337
REMARK  139  A    between atoms: _337  and  _338
REMARK  140  A    between atoms: _341  and  _343
REMARK  141  A    between atoms: _343  and  _344
REMARK  142  A    between atoms: _343  and  _346
REMARK  143  A    between atoms: _346  and  _347
REMARK  144  A    between atoms: _350  and  _352
REMARK  145  A    between atoms: _352  and  _353
REMARK  146  A    between atoms: _352  and  _355
REMARK  147  A    between atoms: _355  and  _356
REMARK  148  A    between atoms: _359  and  _361
REMARK  149  A    between atoms: _361  and  _362
REMARK  150  A    between atoms: _361  and  _364
REMARK  151  A    between atoms: _364  and  _365
REMARK  152  A    between atoms: _368  and  _370
REMARK  153  A    between atoms: _370  and  _371
REMARK  154  A    between atoms: _370  and  _373
REMARK  155  A    between atoms: _373  and  _374
REMARK  156  A    between atoms: _374  and  _375
REMARK  157  A    between atoms: _375  and  _376
REMARK  158  A    between atoms: _376  and  _377
REMARK  159  A    between atoms: _381  and  _383
REMARK  160  A    between atoms: _383  and  _384
REMARK  161  A    between atoms: _383  and  _386
REMARK  162  A    between atoms: _386  and  _387
REMARK  163  A    between atoms: _387  and  _388
REMARK  164  A    between atoms: _390  and  _392
REMARK  165  A    between atoms: _392  and  _393
REMARK  166  A    between atoms: _392  and  _395
REMARK  167  A    between atoms: _395  and  _396
REMARK  168  A    between atoms: _399  and  _401
REMARK  169  A    between atoms: _401  and  _402
REMARK  170  A    between atoms: _404  and  _406
REMARK  171  A    between atoms: _406  and  _407
REMARK  172  A    between atoms: _409  and  _411
REMARK  173  A    between atoms: _411  and  _412
REMARK  174  A    between atoms: _411  and  _414
REMARK  175  A    between atoms: _414  and  _415
REMARK  176  A    between atoms: _418  and  _420
REMARK  177  A    between atoms: _420  and  _421
REMARK  178  A    between atoms: _423  and  _425
REMARK  179  A    between atoms: _425  and  _426
REMARK  180  A    between atoms: _428  and  _430
REMARK  181  A    between atoms: _430  and  _431
REMARK  182  A    between atoms: _430  and  _433
REMARK  183  A    between atoms: _433  and  _434
REMARK  184  A    between atoms: _437  and  _439
REMARK  185  A    between atoms: _439  and  _440
REMARK  186  A    between atoms: _439  and  _442
REMARK  187  A    between atoms: _445  and  _447
REMARK  188  A    between atoms: _447  and  _448
REMARK  189  A    between atoms: _447  and  _450
REMARK  190  A    between atoms: _450  and  _451
REMARK  191  A    between atoms: _455  and  _456
REMARK  192  A    between atoms: _461  and  _463
REMARK  193  A    between atoms: _463  and  _464
REMARK  194  A    between atoms: _463  and  _466
REMARK  195  A    between atoms: _466  and  _467
REMARK  196  A    between atoms: _471  and  _472
REMARK  197  A    between atoms: _477  and  _479
REMARK  198  A    between atoms: _479  and  _480
REMARK  199  A    between atoms: _479  and  _482
REMARK  200  A    between atoms: _482  and  _483
REMARK  201  A    between atoms: _486  and  _488
REMARK  202  A    between atoms: _488  and  _489
REMARK  203  A    between atoms: _488  and  _491
REMARK  204  A    between atoms: _491  and  _492
REMARK  205  A    between atoms: _497  and  _499
REMARK  206  A    between atoms: _499  and  _500
REMARK  207  A    between atoms: _499  and  _502
REMARK  208  A    between atoms: _505  and  _507
REMARK  209  A    between atoms: _507  and  _508
REMARK  210  A    between atoms: _507  and  _510
REMARK  211  A    between atoms: _510  and  _511
REMARK  212  A    between atoms: _514  and  _516
REMARK  213  A    between atoms: _516  and  _517
REMARK  214  A    between atoms: _519  and  _521
REMARK  215  A    between atoms: _521  and  _522
REMARK  216  A    between atoms: _521  and  _524
REMARK  217  A    between atoms: _524  and  _525
REMARK  218  A    between atoms: _525  and  _526
REMARK  219  A    between atoms: _526  and  _527
REMARK                            x       y       z     vdW  Elec       q    Type
REMARK                         _______ _______ _______ _____ _____    ______ ____
ROOT
ATOM      1  O   HOH     1      -8.631  21.546  14.181  0.00  0.00    +0.000 OA
ENDROOT
TORSDOF 0
REMARK  Name = ../refined-set-2016/3u7s/3u7s_pocket.pdb
REMARK  219 active torsions:
REMARK  status: ('A' for Active; 'I' for Inactive)
REMARK    1  A    between atoms: _1  and  _3
REMARK    2  A    between atoms: _3  and  _4
REMARK    3  A    between atoms: _3  and  _6
REMARK    4  A    between atoms: _6  and  _7
REMARK    5  A    between atoms: _7  and  _8
REMARK    6  A    between atoms: _8  and  _9
REMARK    7  A    between atoms: _18  and  _20
REMARK    8  A    between atoms: _20  and  _21
REMARK    9  A    between atoms: _20  and  _23
REMARK   10  A    between atoms: _23  and  _24
REMARK   11  A    between atoms: _27  and  _29
REMARK   12  A    between atoms: _29  and  _30
REMARK   13  A    between atoms: _29  and  _32
REMARK   14  A    between atoms: _32  and  _33
REMARK   15  A    between atoms: _36  and  _38
REMARK   16  A    between atoms: _38  and  _39
REMARK   17  A    between atoms: _38  and  _41
REMARK   18  A    between atoms: _41  and  _42
REMARK   19  A    between atoms: _45  and  _47
REMARK   20  A    between atoms: _47  and  _48
REMARK   21  A    between atoms: _47  and  _50
REMARK   22  A    between atoms: _50  and  _51
REMARK   23  A    between atoms: _54  and  _56
REMARK   24  A    between atoms: _56  and  _57
REMARK   25  A    between atoms: _59  and  _61
REMARK   26  A    between atoms: _61  and  _62
REMARK   27  A    between atoms: _65  and  _67
REMARK   28  A    between atoms: _67  and  _68
REMARK   29  A    between atoms: _67  and  _70
REMARK   30  A    between atoms: _70  and  _71
REMARK   31  A    between atoms: _74  and  _76
REMARK   32  A    between atoms: _76  and  _77
REMARK   33  A    between atoms: _76  and  _79
REMARK   34  A    between atoms: _79  and  _80
REMARK   35  A    between atoms: _83  and  _85
REMARK   36  A    between atoms: _85  and  _86
REMARK   37  A    between atoms: _85  and  _88
REMARK   38  A    between atoms: _88  and  _89
REMARK   39  A    between atoms: _92  and  _94
REMARK   40  A    between atoms: _94  and  _95
REMARK   41  A    between atoms: _94  and  _97
REMARK   42  A    between atoms: _97  and  _98
REMARK   43  A    between atoms: _101  and  _103
REMARK   44  A    between atoms: _103  and  _104
REMARK   45  A    between atoms: _103  and  _106
REMARK   46  A    between atoms: _106  and  _107
REMARK   47  A    between atoms: _107  and  _108
REMARK   48  A    between atoms: _108  and  _109
REMARK   49  A    between atoms: _109  and  _110
REMARK   50  A    between atoms: _114  and  _116
REMARK   51  A    between atoms: _116  and  _117
REMARK   52  A    between atoms: _116  and  _119
REMARK   53  A    between atoms: _119  and  _120
REMARK   54  A    between atoms: _120  and  _121
REMARK   55  A    between atoms: _125  and  _126
REMARK   56  A    between atoms: _125  and  _128
REMARK   57  A    between atoms: _128  and  _129
REMARK   58  A    between atoms: _132  and  _134
REMARK   59  A    between atoms: _134  and  _135
REMARK   60  A    between atoms: _137  and  _139
REMARK   61  A    between atoms: _139  and  _140
REMARK   62  A    between atoms: _142  and  _144
REMARK   63  A    between atoms: _144  and  _145
REMARK   64  A    between atoms: _144  and  _147
REMARK   65  A    between atoms: _147  and  _148
REMARK   66  A    between atoms: _151  and  _153
REMARK   67  A    between atoms: _153  and  _154
REMARK   68  A    between atoms: _156  and  _158
REMARK   69  A    between atoms: _158  and  _159
REMARK   70  A    between atoms: _161  and  _163
REMARK   71  A    between atoms: _163  and  _164
REMARK   72  A    between atoms: _163  and  _166
REMARK   73  A    between atoms: _166  and  _167
REMARK   74  A    between atoms: _173  and  _175
REMARK   75  A    between atoms: _175  and  _176
REMARK   76  A    between atoms: _175  and  _178
REMARK   77  A    between atoms: _178  and  _179
REMARK   78  A    between atoms: _182  and  _184
REMARK   79  A    between atoms: _184  and  _185
REMARK   80  A    between atoms: _184  and  _187
REMARK   81  A    between atoms: _187  and  _188
REMARK   82  A    between atoms: _192  and  _193
REMARK   83  A    between atoms: _198  and  _200
REMARK   84  A    between atoms: _200  and  _201
REMARK   85  A    between atoms: _200  and  _203
REMARK   86  A    between atoms: _203  and  _204
REMARK   87  A    between atoms: _207  and  _209
REMARK   88  A    between atoms: _209  and  _210
REMARK   89  A    between atoms: _209  and  _212
REMARK   90  A    between atoms: _212  and  _213
REMARK   91  A    between atoms: _218  and  _220
REMARK   92  A    between atoms: _220  and  _221
REMARK   93  A    between atoms: _220  and  _223
REMARK   94  A    between atoms: _226  and  _228
REMARK   95  A    between atoms: _228  and  _229
REMARK   96  A    between atoms: _228  and  _231
REMARK   97  A    between atoms: _231  and  _232
REMARK   98  A    between atoms: _235  and  _237
REMARK   99  A    between atoms: _237  and  _238
REMARK  100  A    between atoms: _240  and  _242
REMARK  101  A    between atoms: _242  and  _243
REMARK  102  A    between atoms: _242  and  _245
REMARK  103  A    between atoms: _245  and  _246
REMARK  104  A    between atoms: _246  and  _247
REMARK  105  A    between atoms: _247  and  _248
REMARK  106  A    between atoms: _257  and  _259
REMARK  107  A    between atoms: _259  and  _260
REMARK  108  A    between atoms: _259  and  _262
REMARK  109  A    between atoms: _262  and  _263
REMARK  110  A    between atoms: _268  and  _270
REMARK  111  A    between atoms: _270  and  _271
REMARK  112  A    between atoms: _270  and  _273
REMARK  113  A    between atoms: _273  and  _274
REMARK  114  A    between atoms: _274  and  _275
REMARK  115  A    between atoms: _275  and  _276
REMARK  116  A    between atoms: _285  and  _287
REMARK  117  A    between atoms: _287  and  _288
REMARK  118  A    between atoms: _287  and  _290
REMARK  119  A    between atoms: _290  and  _291
REMARK  120  A    between atoms: _294  and  _296
REMARK  121  A    between atoms: _296  and  _297
REMARK  122  A    between atoms: _296  and  _299
REMARK  123  A    between atoms: _299  and  _300
REMARK  124  A    between atoms: _303  and  _305
REMARK  125  A    between atoms: _305  and  _306
REMARK  126  A    between atoms: _305  and  _308
REMARK  127  A    between atoms: _308  and  _309
REMARK  128  A    between atoms: _312  and  _314
REMARK  129  A    between atoms: _314  and  _315
REMARK  130  A    between atoms: _314  and  _317
REMARK  131  A    between atoms: _317  and  _318
REMARK  132  A    between atoms: _321  and  _323
REMARK  133  A    between atoms: _323  and  _324
REMARK  134  A    between atoms: _326  and  _328
REMARK  135  A    between atoms: _328  and  _329
REMARK  136  A    between atoms: _332  and  _334
REMARK  137  A    between atoms: _334  and  _335
REMARK  138  A    between atoms: _334  and  _337
REMARK  139  A    between atoms: _337  and  _338
REMARK  140  A    between atoms: _341  and  _343
REMARK  141  A    between atoms: _343  and  _344
REMARK  142  A    between atoms: _343  and  _346
REMARK  143  A    between atoms: _346  and  _347
REMARK  144  A    between atoms: _350  and  _352
REMARK  145  A    between atoms: _352  and  _353
REMARK  146  A    between atoms: _352  and  _355
REMARK  147  A    between atoms: _355  and  _356
REMARK  148  A    between atoms: _359  and  _361
REMARK  149  A    between atoms: _361  and  _362
REMARK  150  A    between atoms: _361  and  _364
REMARK  151  A    between atoms: _364  and  _365
REMARK  152  A    between atoms: _368  and  _370
REMARK  153  A    between atoms: _370  and  _371
REMARK  154  A    between atoms: _370  and  _373
REMARK  155  A    between atoms: _373  and  _374
REMARK  156  A    between atoms: _374  and  _375
REMARK  157  A    between atoms: _375  and  _376
REMARK  158  A    between atoms: _376  and  _377
REMARK  159  A    between atoms: _381  and  _383
REMARK  160  A    between atoms: _383  and  _384
REMARK  161  A    between atoms: _383  and  _386
REMARK  162  A    between atoms: _386  and  _387
REMARK  163  A    between atoms: _387  and  _388
REMARK  164  A    between atoms: _390  and  _392
REMARK  165  A    between atoms: _392  and  _393
REMARK  166  A    between atoms: _392  and  _395
REMARK  167  A    between atoms: _395  and  _396
REMARK  168  A    between atoms: _399  and  _401
REMARK  169  A    between atoms: _401  and  _402
REMARK  170  A    between atoms: _404  and  _406
REMARK  171  A    between atoms: _406  and  _407
REMARK  172  A    between atoms: _409  and  _411
REMARK  173  A    between atoms: _411  and  _412
REMARK  174  A    between atoms: _411  and  _414
REMARK  175  A    between atoms: _414  and  _415
REMARK  176  A    between atoms: _418  and  _420
REMARK  177  A    between atoms: _420  and  _421
REMARK  178  A    between atoms: _423  and  _425
REMARK  179  A    between atoms: _425  and  _426
REMARK  180  A    between atoms: _428  and  _430
REMARK  181  A    between atoms: _430  and  _431
REMARK  182  A    between atoms: _430  and  _433
REMARK  183  A    between atoms: _433  and  _434
REMARK  184  A    between atoms: _437  and  _439
REMARK  185  A    between atoms: _439  and  _440
REMARK  186  A    between atoms: _439  and  _442
REMARK  187  A    between atoms: _445  and  _447
REMARK  188  A    between atoms: _447  and  _448
REMARK  189  A    between atoms: _447  and  _450
REMARK  190  A    between atoms: _450  and  _451
REMARK  191  A    between atoms: _455  and  _456
REMARK  192  A    between atoms: _461  and  _463
REMARK  193  A    between atoms: _463  and  _464
REMARK  194  A    between atoms: _463  and  _466
REMARK  195  A    between atoms: _466  and  _467
REMARK  196  A    between atoms: _471  and  _472
REMARK  197  A    between atoms: _477  and  _479
REMARK  198  A    between atoms: _479  and  _480
REMARK  199  A    between atoms: _479  and  _482
REMARK  200  A    between atoms: _482  and  _483
REMARK  201  A    between atoms: _486  and  _488
REMARK  202  A    between atoms: _488  and  _489
REMARK  203  A    between atoms: _488  and  _491
REMARK  204  A    between atoms: _491  and  _492
REMARK  205  A    between atoms: _497  and  _499
REMARK  206  A    between atoms: _499  and  _500
REMARK  207  A    between atoms: _499  and  _502
REMARK  208  A    between atoms: _505  and  _507
REMARK  209  A    between atoms: _507  and  _508
REMARK  210  A    between atoms: _507  and  _510
REMARK  211  A    between atoms: _510  and  _511
REMARK  212  A    between atoms: _514  and  _516
REMARK  213  A    between atoms: _516  and  _517
REMARK  214  A    between atoms: _519  and  _521
REMARK  215  A    between atoms: _521  and  _522
REMARK  216  A    between atoms: _521  and  _524
REMARK  217  A    between atoms: _524  and  _525
REMARK  218  A    between atoms: _525  and  _526
REMARK  219  A    between atoms: _526  and  _527
REMARK                            x       y       z     vdW  Elec       q    Type
REMARK                         _______ _______ _______ _____ _____    ______ ____
ROOT
ATOM      1  O   HOH     1      -1.065  13.304  23.907  0.00  0.00    +0.000 OA
ENDROOT
TORSDOF 0
REMARK  Name = ../refined-set-2016/3u7s/3u7s_pocket.pdb
REMARK  219 active torsions:
REMARK  status: ('A' for Active; 'I' for Inactive)
REMARK    1  A    between atoms: _1  and  _3
REMARK    2  A    between atoms: _3  and  _4
REMARK    3  A    between atoms: _3  and  _6
REMARK    4  A    between atoms: _6  and  _7
REMARK    5  A    between atoms: _7  and  _8
REMARK    6  A    between atoms: _8  and  _9
REMARK    7  A    between atoms: _18  and  _20
REMARK    8  A    between atoms: _20  and  _21
REMARK    9  A    between atoms: _20  and  _23
REMARK   10  A    between atoms: _23  and  _24
REMARK   11  A    between atoms: _27  and  _29
REMARK   12  A    between atoms: _29  and  _30
REMARK   13  A    between atoms: _29  and  _32
REMARK   14  A    between atoms: _32  and  _33
REMARK   15  A    between atoms: _36  and  _38
REMARK   16  A    between atoms: _38  and  _39
REMARK   17  A    between atoms: _38  and  _41
REMARK   18  A    between atoms: _41  and  _42
REMARK   19  A    between atoms: _45  and  _47
REMARK   20  A    between atoms: _47  and  _48
REMARK   21  A    between atoms: _47  and  _50
REMARK   22  A    between atoms: _50  and  _51
REMARK   23  A    between atoms: _54  and  _56
REMARK   24  A    between atoms: _56  and  _57
REMARK   25  A    between atoms: _59  and  _61
REMARK   26  A    between atoms: _61  and  _62
REMARK   27  A    between atoms: _65  and  _67
REMARK   28  A    between atoms: _67  and  _68
REMARK   29  A    between atoms: _67  and  _70
REMARK   30  A    between atoms: _70  and  _71
REMARK   31  A    between atoms: _74  and  _76
REMARK   32  A    between atoms: _76  and  _77
REMARK   33  A    between atoms: _76  and  _79
REMARK   34  A    between atoms: _79  and  _80
REMARK   35  A    between atoms: _83  and  _85
REMARK   36  A    between atoms: _85  and  _86
REMARK   37  A    between atoms: _85  and  _88
REMARK   38  A    between atoms: _88  and  _89
REMARK   39  A    between atoms: _92  and  _94
REMARK   40  A    between atoms: _94  and  _95
REMARK   41  A    between atoms: _94  and  _97
REMARK   42  A    between atoms: _97  and  _98
REMARK   43  A    between atoms: _101  and  _103
REMARK   44  A    between atoms: _103  and  _104
REMARK   45  A    between atoms: _103  and  _106
REMARK   46  A    between atoms: _106  and  _107
REMARK   47  A    between atoms: _107  and  _108
REMARK   48  A    between atoms: _108  and  _109
REMARK   49  A    between atoms: _109  and  _110
REMARK   50  A    between atoms: _114  and  _116
REMARK   51  A    between atoms: _116  and  _117
REMARK   52  A    between atoms: _116  and  _119
REMARK   53  A    between atoms: _119  and  _120
REMARK   54  A    between atoms: _120  and  _121
REMARK   55  A    between atoms: _125  and  _126
REMARK   56  A    between atoms: _125  and  _128
REMARK   57  A    between atoms: _128  and  _129
REMARK   58  A    between atoms: _132  and  _134
REMARK   59  A    between atoms: _134  and  _135
REMARK   60  A    between atoms: _137  and  _139
REMARK   61  A    between atoms: _139  and  _140
REMARK   62  A    between atoms: _142  and  _144
REMARK   63  A    between atoms: _144  and  _145
REMARK   64  A    between atoms: _144  and  _147
REMARK   65  A    between atoms: _147  and  _148
REMARK   66  A    between atoms: _151  and  _153
REMARK   67  A    between atoms: _153  and  _154
REMARK   68  A    between atoms: _156  and  _158
REMARK   69  A    between atoms: _158  and  _159
REMARK   70  A    between atoms: _161  and  _163
REMARK   71  A    between atoms: _163  and  _164
REMARK   72  A    between atoms: _163  and  _166
REMARK   73  A    between atoms: _166  and  _167
REMARK   74  A    between atoms: _173  and  _175
REMARK   75  A    between atoms: _175  and  _176
REMARK   76  A    between atoms: _175  and  _178
REMARK   77  A    between atoms: _178  and  _179
REMARK   78  A    between atoms: _182  and  _184
REMARK   79  A    between atoms: _184  and  _185
REMARK   80  A    between atoms: _184  and  _187
REMARK   81  A    between atoms: _187  and  _188
REMARK   82  A    between atoms: _192  and  _193
REMARK   83  A    between atoms: _198  and  _200
REMARK   84  A    between atoms: _200  and  _201
REMARK   85  A    between atoms: _200  and  _203
REMARK   86  A    between atoms: _203  and  _204
REMARK   87  A    between atoms: _207  and  _209
REMARK   88  A    between atoms: _209  and  _210
REMARK   89  A    between atoms: _209  and  _212
REMARK   90  A    between atoms: _212  and  _213
REMARK   91  A    between atoms: _218  and  _220
REMARK   92  A    between atoms: _220  and  _221
REMARK   93  A    between atoms: _220  and  _223
REMARK   94  A    between atoms: _226  and  _228
REMARK   95  A    between atoms: _228  and  _229
REMARK   96  A    between atoms: _228  and  _231
REMARK   97  A    between atoms: _231  and  _232
REMARK   98  A    between atoms: _235  and  _237
REMARK   99  A    between atoms: _237  and  _238
REMARK  100  A    between atoms: _240  and  _242
REMARK  101  A    between atoms: _242  and  _243
REMARK  102  A    between atoms: _242  and  _245
REMARK  103  A    between atoms: _245  and  _246
REMARK  104  A    between atoms: _246  and  _247
REMARK  105  A    between atoms: _247  and  _248
REMARK  106  A    between atoms: _257  and  _259
REMARK  107  A    between atoms: _259  and  _260
REMARK  108  A    between atoms: _259  and  _262
REMARK  109  A    between atoms: _262  and  _263
REMARK  110  A    between atoms: _268  and  _270
REMARK  111  A    between atoms: _270  and  _271
REMARK  112  A    between atoms: _270  and  _273
REMARK  113  A    between atoms: _273  and  _274
REMARK  114  A    between atoms: _274  and  _275
REMARK  115  A    between atoms: _275  and  _276
REMARK  116  A    between atoms: _285  and  _287
REMARK  117  A    between atoms: _287  and  _288
REMARK  118  A    between atoms: _287  and  _290
REMARK  119  A    between atoms: _290  and  _291
REMARK  120  A    between atoms: _294  and  _296
REMARK  121  A    between atoms: _296  and  _297
REMARK  122  A    between atoms: _296  and  _299
REMARK  123  A    between atoms: _299  and  _300
REMARK  124  A    between atoms: _303  and  _305
REMARK  125  A    between atoms: _305  and  _306
REMARK  126  A    between atoms: _305  and  _308
REMARK  127  A    between atoms: _308  and  _309
REMARK  128  A    between atoms: _312  and  _314
REMARK  129  A    between atoms: _314  and  _315
REMARK  130  A    between atoms: _314  and  _317
REMARK  131  A    between atoms: _317  and  _318
REMARK  132  A    between atoms: _321  and  _323
REMARK  133  A    between atoms: _323  and  _324
REMARK  134  A    between atoms: _326  and  _328
REMARK  135  A    between atoms: _328  and  _329
REMARK  136  A    between atoms: _332  and  _334
REMARK  137  A    between atoms: _334  and  _335
REMARK  138  A    between atoms: _334  and  _337
REMARK  139  A    between atoms: _337  and  _338
REMARK  140  A    between atoms: _341  and  _343
REMARK  141  A    between atoms: _343  and  _344
REMARK  142  A    between atoms: _343  and  _346
REMARK  143  A    between atoms: _346  and  _347
REMARK  144  A    between atoms: _350  and  _352
REMARK  145  A    between atoms: _352  and  _353
REMARK  146  A    between atoms: _352  and  _355
REMARK  147  A    between atoms: _355  and  _356
REMARK  148  A    between atoms: _359  and  _361
REMARK  149  A    between atoms: _361  and  _362
REMARK  150  A    between atoms: _361  and  _364
REMARK  151  A    between atoms: _364  and  _365
REMARK  152  A    between atoms: _368  and  _370
REMARK  153  A    between atoms: _370  and  _371
REMARK  154  A    between atoms: _370  and  _373
REMARK  155  A    between atoms: _373  and  _374
REMARK  156  A    between atoms: _374  and  _375
REMARK  157  A    between atoms: _375  and  _376
REMARK  158  A    between atoms: _376  and  _377
REMARK  159  A    between atoms: _381  and  _383
REMARK  160  A    between atoms: _383  and  _384
REMARK  161  A    between atoms: _383  and  _386
REMARK  162  A    between atoms: _386  and  _387
REMARK  163  A    between atoms: _387  and  _388
REMARK  164  A    between atoms: _390  and  _392
REMARK  165  A    between atoms: _392  and  _393
REMARK  166  A    between atoms: _392  and  _395
REMARK  167  A    between atoms: _395  and  _396
REMARK  168  A    between atoms: _399  and  _401
REMARK  169  A    between atoms: _401  and  _402
REMARK  170  A    between atoms: _404  and  _406
REMARK  171  A    between atoms: _406  and  _407
REMARK  172  A    between atoms: _409  and  _411
REMARK  173  A    between atoms: _411  and  _412
REMARK  174  A    between atoms: _411  and  _414
REMARK  175  A    between atoms: _414  and  _415
REMARK  176  A    between atoms: _418  and  _420
REMARK  177  A    between atoms: _420  and  _421
REMARK  178  A    between atoms: _423  and  _425
REMARK  179  A    between atoms: _425  and  _426
REMARK  180  A    between atoms: _428  and  _430
REMARK  181  A    between atoms: _430  and  _431
REMARK  182  A    between atoms: _430  and  _433
REMARK  183  A    between atoms: _433  and  _434
REMARK  184  A    between atoms: _437  and  _439
REMARK  185  A    between atoms: _439  and  _440
REMARK  186  A    between atoms: _439  and  _442
REMARK  187  A    between atoms: _445  and  _447
REMARK  188  A    between atoms: _447  and  _448
REMARK  189  A    between atoms: _447  and  _450
REMARK  190  A    between atoms: _450  and  _451
REMARK  191  A    between atoms: _455  and  _456
REMARK  192  A    between atoms: _461  and  _463
REMARK  193  A    between atoms: _463  and  _464
REMARK  194  A    between atoms: _463  and  _466
REMARK  195  A    between atoms: _466  and  _467
REMARK  196  A    between atoms: _471  and  _472
REMARK  197  A    between atoms: _477  and  _479
REMARK  198  A    between atoms: _479  and  _480
REMARK  199  A    between atoms: _479  and  _482
REMARK  200  A    between atoms: _482  and  _483
REMARK  201  A    between atoms: _486  and  _488
REMARK  202  A    between atoms: _488  and  _489
REMARK  203  A    between atoms: _488  and  _491
REMARK  204  A    between atoms: _491  and  _492
REMARK  205  A    between atoms: _497  and  _499
REMARK  206  A    between atoms: _499  and  _500
REMARK  207  A    between atoms: _499  and  _502
REMARK  208  A    between atoms: _505  and  _507
REMARK  209  A    between atoms: _507  and  _508
REMARK  210  A    between atoms: _507  and  _510
REMARK  211  A    between atoms: _510  and  _511
REMARK  212  A    between atoms: _514  and  _516
REMARK  213  A    between atoms: _516  and  _517
REMARK  214  A    between atoms: _519  and  _521
REMARK  215  A    between atoms: _521  and  _522
REMARK  216  A    between atoms: _521  and  _524
REMARK  217  A    between atoms: _524  and  _525
REMARK  218  A    between atoms: _525  and  _526
REMARK  219  A    between atoms: _526  and  _527
REMARK                            x       y       z     vdW  Elec       q    Type
REMARK                         _______ _______ _______ _____ _____    ______ ____
ROOT
ATOM      1  O   HOH     1      -2.929  14.472  14.760  0.00  0.00    +0.000 OA
ENDROOT
TORSDOF 0
REMARK  Name = ../refined-set-2016/3u7s/3u7s_pocket.pdb
REMARK  219 active torsions:
REMARK  status: ('A' for Active; 'I' for Inactive)
REMARK    1  A    between atoms: _1  and  _3
REMARK    2  A    between atoms: _3  and  _4
REMARK    3  A    between atoms: _3  and  _6
REMARK    4  A    between atoms: _6  and  _7
REMARK    5  A    between atoms: _7  and  _8
REMARK    6  A    between atoms: _8  and  _9
REMARK    7  A    between atoms: _18  and  _20
REMARK    8  A    between atoms: _20  and  _21
REMARK    9  A    between atoms: _20  and  _23
REMARK   10  A    between atoms: _23  and  _24
REMARK   11  A    between atoms: _27  and  _29
REMARK   12  A    between atoms: _29  and  _30
REMARK   13  A    between atoms: _29  and  _32
REMARK   14  A    between atoms: _32  and  _33
REMARK   15  A    between atoms: _36  and  _38
REMARK   16  A    between atoms: _38  and  _39
REMARK   17  A    between atoms: _38  and  _41
REMARK   18  A    between atoms: _41  and  _42
REMARK   19  A    between atoms: _45  and  _47
REMARK   20  A    between atoms: _47  and  _48
REMARK   21  A    between atoms: _47  and  _50
REMARK   22  A    between atoms: _50  and  _51
REMARK   23  A    between atoms: _54  and  _56
REMARK   24  A    between atoms: _56  and  _57
REMARK   25  A    between atoms: _59  and  _61
REMARK   26  A    between atoms: _61  and  _62
REMARK   27  A    between atoms: _65  and  _67
REMARK   28  A    between atoms: _67  and  _68
REMARK   29  A    between atoms: _67  and  _70
REMARK   30  A    between atoms: _70  and  _71
REMARK   31  A    between atoms: _74  and  _76
REMARK   32  A    between atoms: _76  and  _77
REMARK   33  A    between atoms: _76  and  _79
REMARK   34  A    between atoms: _79  and  _80
REMARK   35  A    between atoms: _83  and  _85
REMARK   36  A    between atoms: _85  and  _86
REMARK   37  A    between atoms: _85  and  _88
REMARK   38  A    between atoms: _88  and  _89
REMARK   39  A    between atoms: _92  and  _94
REMARK   40  A    between atoms: _94  and  _95
REMARK   41  A    between atoms: _94  and  _97
REMARK   42  A    between atoms: _97  and  _98
REMARK   43  A    between atoms: _101  and  _103
REMARK   44  A    between atoms: _103  and  _104
REMARK   45  A    between atoms: _103  and  _106
REMARK   46  A    between atoms: _106  and  _107
REMARK   47  A    between atoms: _107  and  _108
REMARK   48  A    between atoms: _108  and  _109
REMARK   49  A    between atoms: _109  and  _110
REMARK   50  A    between atoms: _114  and  _116
REMARK   51  A    between atoms: _116  and  _117
REMARK   52  A    between atoms: _116  and  _119
REMARK   53  A    between atoms: _119  and  _120
REMARK   54  A    between atoms: _120  and  _121
REMARK   55  A    between atoms: _125  and  _126
REMARK   56  A    between atoms: _125  and  _128
REMARK   57  A    between atoms: _128  and  _129
REMARK   58  A    between atoms: _132  and  _134
REMARK   59  A    between atoms: _134  and  _135
REMARK   60  A    between atoms: _137  and  _139
REMARK   61  A    between atoms: _139  and  _140
REMARK   62  A    between atoms: _142  and  _144
REMARK   63  A    between atoms: _144  and  _145
REMARK   64  A    between atoms: _144  and  _147
REMARK   65  A    between atoms: _147  and  _148
REMARK   66  A    between atoms: _151  and  _153
REMARK   67  A    between atoms: _153  and  _154
REMARK   68  A    between atoms: _156  and  _158
REMARK   69  A    between atoms: _158  and  _159
REMARK   70  A    between atoms: _161  and  _163
REMARK   71  A    between atoms: _163  and  _164
REMARK   72  A    between atoms: _163  and  _166
REMARK   73  A    between atoms: _166  and  _167
REMARK   74  A    between atoms: _173  and  _175
REMARK   75  A    between atoms: _175  and  _176
REMARK   76  A    between atoms: _175  and  _178
REMARK   77  A    between atoms: _178  and  _179
REMARK   78  A    between atoms: _182  and  _184
REMARK   79  A    between atoms: _184  and  _185
REMARK   80  A    between atoms: _184  and  _187
REMARK   81  A    between atoms: _187  and  _188
REMARK   82  A    between atoms: _192  and  _193
REMARK   83  A    between atoms: _198  and  _200
REMARK   84  A    between atoms: _200  and  _201
REMARK   85  A    between atoms: _200  and  _203
REMARK   86  A    between atoms: _203  and  _204
REMARK   87  A    between atoms: _207  and  _209
REMARK   88  A    between atoms: _209  and  _210
REMARK   89  A    between atoms: _209  and  _212
REMARK   90  A    between atoms: _212  and  _213
REMARK   91  A    between atoms: _218  and  _220
REMARK   92  A    between atoms: _220  and  _221
REMARK   93  A    between atoms: _220  and  _223
REMARK   94  A    between atoms: _226  and  _228
REMARK   95  A    between atoms: _228  and  _229
REMARK   96  A    between atoms: _228  and  _231
REMARK   97  A    between atoms: _231  and  _232
REMARK   98  A    between atoms: _235  and  _237
REMARK   99  A    between atoms: _237  and  _238
REMARK  100  A    between atoms: _240  and  _242
REMARK  101  A    between atoms: _242  and  _243
REMARK  102  A    between atoms: _242  and  _245
REMARK  103  A    between atoms: _245  and  _246
REMARK  104  A    between atoms: _246  and  _247
REMARK  105  A    between atoms: _247  and  _248
REMARK  106  A    between atoms: _257  and  _259
REMARK  107  A    between atoms: _259  and  _260
REMARK  108  A    between atoms: _259  and  _262
REMARK  109  A    between atoms: _262  and  _263
REMARK  110  A    between atoms: _268  and  _270
REMARK  111  A    between atoms: _270  and  _271
REMARK  112  A    between atoms: _270  and  _273
REMARK  113  A    between atoms: _273  and  _274
REMARK  114  A    between atoms: _274  and  _275
REMARK  115  A    between atoms: _275  and  _276
REMARK  116  A    between atoms: _285  and  _287
REMARK  117  A    between atoms: _287  and  _288
REMARK  118  A    between atoms: _287  and  _290
REMARK  119  A    between atoms: _290  and  _291
REMARK  120  A    between atoms: _294  and  _296
REMARK  121  A    between atoms: _296  and  _297
REMARK  122  A    between atoms: _296  and  _299
REMARK  123  A    between atoms: _299  and  _300
REMARK  124  A    between atoms: _303  and  _305
REMARK  125  A    between atoms: _305  and  _306
REMARK  126  A    between atoms: _305  and  _308
REMARK  127  A    between atoms: _308  and  _309
REMARK  128  A    between atoms: _312  and  _314
REMARK  129  A    between atoms: _314  and  _315
REMARK  130  A    between atoms: _314  and  _317
REMARK  131  A    between atoms: _317  and  _318
REMARK  132  A    between atoms: _321  and  _323
REMARK  133  A    between atoms: _323  and  _324
REMARK  134  A    between atoms: _326  and  _328
REMARK  135  A    between atoms: _328  and  _329
REMARK  136  A    between atoms: _332  and  _334
REMARK  137  A    between atoms: _334  and  _335
REMARK  138  A    between atoms: _334  and  _337
REMARK  139  A    between atoms: _337  and  _338
REMARK  140  A    between atoms: _341  and  _343
REMARK  141  A    between atoms: _343  and  _344
REMARK  142  A    between atoms: _343  and  _346
REMARK  143  A    between atoms: _346  and  _347
REMARK  144  A    between atoms: _350  and  _352
REMARK  145  A    between atoms: _352  and  _353
REMARK  146  A    between atoms: _352  and  _355
REMARK  147  A    between atoms: _355  and  _356
REMARK  148  A    between atoms: _359  and  _361
REMARK  149  A    between atoms: _361  and  _362
REMARK  150  A    between atoms: _361  and  _364
REMARK  151  A    between atoms: _364  and  _365
REMARK  152  A    between atoms: _368  and  _370
REMARK  153  A    between atoms: _370  and  _371
REMARK  154  A    between atoms: _370  and  _373
REMARK  155  A    between atoms: _373  and  _374
REMARK  156  A    between atoms: _374  and  _375
REMARK  157  A    between atoms: _375  and  _376
REMARK  158  A    between atoms: _376  and  _377
REMARK  159  A    between atoms: _381  and  _383
REMARK  160  A    between atoms: _383  and  _384
REMARK  161  A    between atoms: _383  and  _386
REMARK  162  A    between atoms: _386  and  _387
REMARK  163  A    between atoms: _387  and  _388
REMARK  164  A    between atoms: _390  and  _392
REMARK  165  A    between atoms: _392  and  _393
REMARK  166  A    between atoms: _392  and  _395
REMARK  167  A    between atoms: _395  and  _396
REMARK  168  A    between atoms: _399  and  _401
REMARK  169  A    between atoms: _401  and  _402
REMARK  170  A    between atoms: _404  and  _406
REMARK  171  A    between atoms: _406  and  _407
REMARK  172  A    between atoms: _409  and  _411
REMARK  173  A    between atoms: _411  and  _412
REMARK  174  A    between atoms: _411  and  _414
REMARK  175  A    between atoms: _414  and  _415
REMARK  176  A    between atoms: _418  and  _420
REMARK  177  A    between atoms: _420  and  _421
REMARK  178  A    between atoms: _423  and  _425
REMARK  179  A    between atoms: _425  and  _426
REMARK  180  A    between atoms: _428  and  _430
REMARK  181  A    between atoms: _430  and  _431
REMARK  182  A    between atoms: _430  and  _433
REMARK  183  A    between atoms: _433  and  _434
REMARK  184  A    between atoms: _437  and  _439
REMARK  185  A    between atoms: _439  and  _440
REMARK  186  A    between atoms: _439  and  _442
REMARK  187  A    between atoms: _445  and  _447
REMARK  188  A    between atoms: _447  and  _448
REMARK  189  A    between atoms: _447  and  _450
REMARK  190  A    between atoms: _450  and  _451
REMARK  191  A    between atoms: _455  and  _456
REMARK  192  A    between atoms: _461  and  _463
REMARK  193  A    between atoms: _463  and  _464
REMARK  194  A    between atoms: _463  and  _466
REMARK  195  A    between atoms: _466  and  _467
REMARK  196  A    between atoms: _471  and  _472
REMARK  197  A    between atoms: _477  and  _479
REMARK  198  A    between atoms: _479  and  _480
REMARK  199  A    between atoms: _479  and  _482
REMARK  200  A    between atoms: _482  and  _483
REMARK  201  A    between atoms: _486  and  _488
REMARK  202  A    between atoms: _488  and  _489
REMARK  203  A    between atoms: _488  and  _491
REMARK  204  A    between atoms: _491  and  _492
REMARK  205  A    between atoms: _497  and  _499
REMARK  206  A    between atoms: _499  and  _500
REMARK  207  A    between atoms: _499  and  _502
REMARK  208  A    between atoms: _505  and  _507
REMARK  209  A    between atoms: _507  and  _508
REMARK  210  A    between atoms: _507  and  _510
REMARK  211  A    between atoms: _510  and  _511
REMARK  212  A    between atoms: _514  and  _516
REMARK  213  A    between atoms: _516  and  _517
REMARK  214  A    between atoms: _519  and  _521
REMARK  215  A    between atoms: _521  and  _522
REMARK  216  A    between atoms: _521  and  _524
REMARK  217  A    between atoms: _524  and  _525
REMARK  218  A    between atoms: _525  and  _526
REMARK  219  A    between atoms: _526  and  _527
REMARK                            x       y       z     vdW  Elec       q    Type
REMARK                         _______ _______ _______ _____ _____    ______ ____
ROOT
ATOM      1  O   HOH     1      -8.651  19.789  40.092  0.00  0.00    +0.000 OA
ENDROOT
TORSDOF 0
REMARK  Name = ../refined-set-2016/3u7s/3u7s_pocket.pdb
REMARK  219 active torsions:
REMARK  status: ('A' for Active; 'I' for Inactive)
REMARK    1  A    between atoms: _1  and  _3
REMARK    2  A    between atoms: _3  and  _4
REMARK    3  A    between atoms: _3  and  _6
REMARK    4  A    between atoms: _6  and  _7
REMARK    5  A    between atoms: _7  and  _8
REMARK    6  A    between atoms: _8  and  _9
REMARK    7  A    between atoms: _18  and  _20
REMARK    8  A    between atoms: _20  and  _21
REMARK    9  A    between atoms: _20  and  _23
REMARK   10  A    between atoms: _23  and  _24
REMARK   11  A    between atoms: _27  and  _29
REMARK   12  A    between atoms: _29  and  _30
REMARK   13  A    between atoms: _29  and  _32
REMARK   14  A    between atoms: _32  and  _33
REMARK   15  A    between atoms: _36  and  _38
REMARK   16  A    between atoms: _38  and  _39
REMARK   17  A    between atoms: _38  and  _41
REMARK   18  A    between atoms: _41  and  _42
REMARK   19  A    between atoms: _45  and  _47
REMARK   20  A    between atoms: _47  and  _48
REMARK   21  A    between atoms: _47  and  _50
REMARK   22  A    between atoms: _50  and  _51
REMARK   23  A    between atoms: _54  and  _56
REMARK   24  A    between atoms: _56  and  _57
REMARK   25  A    between atoms: _59  and  _61
REMARK   26  A    between atoms: _61  and  _62
REMARK   27  A    between atoms: _65  and  _67
REMARK   28  A    between atoms: _67  and  _68
REMARK   29  A    between atoms: _67  and  _70
REMARK   30  A    between atoms: _70  and  _71
REMARK   31  A    between atoms: _74  and  _76
REMARK   32  A    between atoms: _76  and  _77
REMARK   33  A    between atoms: _76  and  _79
REMARK   34  A    between atoms: _79  and  _80
REMARK   35  A    between atoms: _83  and  _85
REMARK   36  A    between atoms: _85  and  _86
REMARK   37  A    between atoms: _85  and  _88
REMARK   38  A    between atoms: _88  and  _89
REMARK   39  A    between atoms: _92  and  _94
REMARK   40  A    between atoms: _94  and  _95
REMARK   41  A    between atoms: _94  and  _97
REMARK   42  A    between atoms: _97  and  _98
REMARK   43  A    between atoms: _101  and  _103
REMARK   44  A    between atoms: _103  and  _104
REMARK   45  A    between atoms: _103  and  _106
REMARK   46  A    between atoms: _106  and  _107
REMARK   47  A    between atoms: _107  and  _108
REMARK   48  A    between atoms: _108  and  _109
REMARK   49  A    between atoms: _109  and  _110
REMARK   50  A    between atoms: _114  and  _116
REMARK   51  A    between atoms: _116  and  _117
REMARK   52  A    between atoms: _116  and  _119
REMARK   53  A    between atoms: _119  and  _120
REMARK   54  A    between atoms: _120  and  _121
REMARK   55  A    between atoms: _125  and  _126
REMARK   56  A    between atoms: _125  and  _128
REMARK   57  A    between atoms: _128  and  _129
REMARK   58  A    between atoms: _132  and  _134
REMARK   59  A    between atoms: _134  and  _135
REMARK   60  A    between atoms: _137  and  _139
REMARK   61  A    between atoms: _139  and  _140
REMARK   62  A    between atoms: _142  and  _144
REMARK   63  A    between atoms: _144  and  _145
REMARK   64  A    between atoms: _144  and  _147
REMARK   65  A    between atoms: _147  and  _148
REMARK   66  A    between atoms: _151  and  _153
REMARK   67  A    between atoms: _153  and  _154
REMARK   68  A    between atoms: _156  and  _158
REMARK   69  A    between atoms: _158  and  _159
REMARK   70  A    between atoms: _161  and  _163
REMARK   71  A    between atoms: _163  and  _164
REMARK   72  A    between atoms: _163  and  _166
REMARK   73  A    between atoms: _166  and  _167
REMARK   74  A    between atoms: _173  and  _175
REMARK   75  A    between atoms: _175  and  _176
REMARK   76  A    between atoms: _175  and  _178
REMARK   77  A    between atoms: _178  and  _179
REMARK   78  A    between atoms: _182  and  _184
REMARK   79  A    between atoms: _184  and  _185
REMARK   80  A    between atoms: _184  and  _187
REMARK   81  A    between atoms: _187  and  _188
REMARK   82  A    between atoms: _192  and  _193
REMARK   83  A    between atoms: _198  and  _200
REMARK   84  A    between atoms: _200  and  _201
REMARK   85  A    between atoms: _200  and  _203
REMARK   86  A    between atoms: _203  and  _204
REMARK   87  A    between atoms: _207  and  _209
REMARK   88  A    between atoms: _209  and  _210
REMARK   89  A    between atoms: _209  and  _212
REMARK   90  A    between atoms: _212  and  _213
REMARK   91  A    between atoms: _218  and  _220
REMARK   92  A    between atoms: _220  and  _221
REMARK   93  A    between atoms: _220  and  _223
REMARK   94  A    between atoms: _226  and  _228
REMARK   95  A    between atoms: _228  and  _229
REMARK   96  A    between atoms: _228  and  _231
REMARK   97  A    between atoms: _231  and  _232
REMARK   98  A    between atoms: _235  and  _237
REMARK   99  A    between atoms: _237  and  _238
REMARK  100  A    between atoms: _240  and  _242
REMARK  101  A    between atoms: _242  and  _243
REMARK  102  A    between atoms: _242  and  _245
REMARK  103  A    between atoms: _245  and  _246
REMARK  104  A    between atoms: _246  and  _247
REMARK  105  A    between atoms: _247  and  _248
REMARK  106  A    between atoms: _257  and  _259
REMARK  107  A    between atoms: _259  and  _260
REMARK  108  A    between atoms: _259  and  _262
REMARK  109  A    between atoms: _262  and  _263
REMARK  110  A    between atoms: _268  and  _270
REMARK  111  A    between atoms: _270  and  _271
REMARK  112  A    between atoms: _270  and  _273
REMARK  113  A    between atoms: _273  and  _274
REMARK  114  A    between atoms: _274  and  _275
REMARK  115  A    between atoms: _275  and  _276
REMARK  116  A    between atoms: _285  and  _287
REMARK  117  A    between atoms: _287  and  _288
REMARK  118  A    between atoms: _287  and  _290
REMARK  119  A    between atoms: _290  and  _291
REMARK  120  A    between atoms: _294  and  _296
REMARK  121  A    between atoms: _296  and  _297
REMARK  122  A    between atoms: _296  and  _299
REMARK  123  A    between atoms: _299  and  _300
REMARK  124  A    between atoms: _303  and  _305
REMARK  125  A    between atoms: _305  and  _306
REMARK  126  A    between atoms: _305  and  _308
REMARK  127  A    between atoms: _308  and  _309
REMARK  128  A    between atoms: _312  and  _314
REMARK  129  A    between atoms: _314  and  _315
REMARK  130  A    between atoms: _314  and  _317
REMARK  131  A    between atoms: _317  and  _318
REMARK  132  A    between atoms: _321  and  _323
REMARK  133  A    between atoms: _323  and  _324
REMARK  134  A    between atoms: _326  and  _328
REMARK  135  A    between atoms: _328  and  _329
REMARK  136  A    between atoms: _332  and  _334
REMARK  137  A    between atoms: _334  and  _335
REMARK  138  A    between atoms: _334  and  _337
REMARK  139  A    between atoms: _337  and  _338
REMARK  140  A    between atoms: _341  and  _343
REMARK  141  A    between atoms: _343  and  _344
REMARK  142  A    between atoms: _343  and  _346
REMARK  143  A    between atoms: _346  and  _347
REMARK  144  A    between atoms: _350  and  _352
REMARK  145  A    between atoms: _352  and  _353
REMARK  146  A    between atoms: _352  and  _355
REMARK  147  A    between atoms: _355  and  _356
REMARK  148  A    between atoms: _359  and  _361
REMARK  149  A    between atoms: _361  and  _362
REMARK  150  A    between atoms: _361  and  _364
REMARK  151  A    between atoms: _364  and  _365
REMARK  152  A    between atoms: _368  and  _370
REMARK  153  A    between atoms: _370  and  _371
REMARK  154  A    between atoms: _370  and  _373
REMARK  155  A    between atoms: _373  and  _374
REMARK  156  A    between atoms: _374  and  _375
REMARK  157  A    between atoms: _375  and  _376
REMARK  158  A    between atoms: _376  and  _377
REMARK  159  A    between atoms: _381  and  _383
REMARK  160  A    between atoms: _383  and  _384
REMARK  161  A    between atoms: _383  and  _386
REMARK  162  A    between atoms: _386  and  _387
REMARK  163  A    between atoms: _387  and  _388
REMARK  164  A    between atoms: _390  and  _392
REMARK  165  A    between atoms: _392  and  _393
REMARK  166  A    between atoms: _392  and  _395
REMARK  167  A    between atoms: _395  and  _396
REMARK  168  A    between atoms: _399  and  _401
REMARK  169  A    between atoms: _401  and  _402
REMARK  170  A    between atoms: _404  and  _406
REMARK  171  A    between atoms: _406  and  _407
REMARK  172  A    between atoms: _409  and  _411
REMARK  173  A    between atoms: _411  and  _412
REMARK  174  A    between atoms: _411  and  _414
REMARK  175  A    between atoms: _414  and  _415
REMARK  176  A    between atoms: _418  and  _420
REMARK  177  A    between atoms: _420  and  _421
REMARK  178  A    between atoms: _423  and  _425
REMARK  179  A    between atoms: _425  and  _426
REMARK  180  A    between atoms: _428  and  _430
REMARK  181  A    between atoms: _430  and  _431
REMARK  182  A    between atoms: _430  and  _433
REMARK  183  A    between atoms: _433  and  _434
REMARK  184  A    between atoms: _437  and  _439
REMARK  185  A    between atoms: _439  and  _440
REMARK  186  A    between atoms: _439  and  _442
REMARK  187  A    between atoms: _445  and  _447
REMARK  188  A    between atoms: _447  and  _448
REMARK  189  A    between atoms: _447  and  _450
REMARK  190  A    between atoms: _450  and  _451
REMARK  191  A    between atoms: _455  and  _456
REMARK  192  A    between atoms: _461  and  _463
REMARK  193  A    between atoms: _463  and  _464
REMARK  194  A    between atoms: _463  and  _466
REMARK  195  A    between atoms: _466  and  _467
REMARK  196  A    between atoms: _471  and  _472
REMARK  197  A    between atoms: _477  and  _479
REMARK  198  A    between atoms: _479  and  _480
REMARK  199  A    between atoms: _479  and  _482
REMARK  200  A    between atoms: _482  and  _483
REMARK  201  A    between atoms: _486  and  _488
REMARK  202  A    between atoms: _488  and  _489
REMARK  203  A    between atoms: _488  and  _491
REMARK  204  A    between atoms: _491  and  _492
REMARK  205  A    between atoms: _497  and  _499
REMARK  206  A    between atoms: _499  and  _500
REMARK  207  A    between atoms: _499  and  _502
REMARK  208  A    between atoms: _505  and  _507
REMARK  209  A    between atoms: _507  and  _508
REMARK  210  A    between atoms: _507  and  _510
REMARK  211  A    between atoms: _510  and  _511
REMARK  212  A    between atoms: _514  and  _516
REMARK  213  A    between atoms: _516  and  _517
REMARK  214  A    between atoms: _519  and  _521
REMARK  215  A    between atoms: _521  and  _522
REMARK  216  A    between atoms: _521  and  _524
REMARK  217  A    between atoms: _524  and  _525
REMARK  218  A    between atoms: _525  and  _526
REMARK  219  A    between atoms: _526  and  _527
REMARK                            x       y       z     vdW  Elec       q    Type
REMARK                         _______ _______ _______ _____ _____    ______ ____
ROOT
ATOM      1  O   HOH     1     -16.941  19.461  31.849  0.00  0.00    +0.000 OA
ENDROOT
TORSDOF 0
REMARK  Name = ../refined-set-2016/3u7s/3u7s_pocket.pdb
REMARK  219 active torsions:
REMARK  status: ('A' for Active; 'I' for Inactive)
REMARK    1  A    between atoms: _1  and  _3
REMARK    2  A    between atoms: _3  and  _4
REMARK    3  A    between atoms: _3  and  _6
REMARK    4  A    between atoms: _6  and  _7
REMARK    5  A    between atoms: _7  and  _8
REMARK    6  A    between atoms: _8  and  _9
REMARK    7  A    between atoms: _18  and  _20
REMARK    8  A    between atoms: _20  and  _21
REMARK    9  A    between atoms: _20  and  _23
REMARK   10  A    between atoms: _23  and  _24
REMARK   11  A    between atoms: _27  and  _29
REMARK   12  A    between atoms: _29  and  _30
REMARK   13  A    between atoms: _29  and  _32
REMARK   14  A    between atoms: _32  and  _33
REMARK   15  A    between atoms: _36  and  _38
REMARK   16  A    between atoms: _38  and  _39
REMARK   17  A    between atoms: _38  and  _41
REMARK   18  A    between atoms: _41  and  _42
REMARK   19  A    between atoms: _45  and  _47
REMARK   20  A    between atoms: _47  and  _48
REMARK   21  A    between atoms: _47  and  _50
REMARK   22  A    between atoms: _50  and  _51
REMARK   23  A    between atoms: _54  and  _56
REMARK   24  A    between atoms: _56  and  _57
REMARK   25  A    between atoms: _59  and  _61
REMARK   26  A    between atoms: _61  and  _62
REMARK   27  A    between atoms: _65  and  _67
REMARK   28  A    between atoms: _67  and  _68
REMARK   29  A    between atoms: _67  and  _70
REMARK   30  A    between atoms: _70  and  _71
REMARK   31  A    between atoms: _74  and  _76
REMARK   32  A    between atoms: _76  and  _77
REMARK   33  A    between atoms: _76  and  _79
REMARK   34  A    between atoms: _79  and  _80
REMARK   35  A    between atoms: _83  and  _85
REMARK   36  A    between atoms: _85  and  _86
REMARK   37  A    between atoms: _85  and  _88
REMARK   38  A    between atoms: _88  and  _89
REMARK   39  A    between atoms: _92  and  _94
REMARK   40  A    between atoms: _94  and  _95
REMARK   41  A    between atoms: _94  and  _97
REMARK   42  A    between atoms: _97  and  _98
REMARK   43  A    between atoms: _101  and  _103
REMARK   44  A    between atoms: _103  and  _104
REMARK   45  A    between atoms: _103  and  _106
REMARK   46  A    between atoms: _106  and  _107
REMARK   47  A    between atoms: _107  and  _108
REMARK   48  A    between atoms: _108  and  _109
REMARK   49  A    between atoms: _109  and  _110
REMARK   50  A    between atoms: _114  and  _116
REMARK   51  A    between atoms: _116  and  _117
REMARK   52  A    between atoms: _116  and  _119
REMARK   53  A    between atoms: _119  and  _120
REMARK   54  A    between atoms: _120  and  _121
REMARK   55  A    between atoms: _125  and  _126
REMARK   56  A    between atoms: _125  and  _128
REMARK   57  A    between atoms: _128  and  _129
REMARK   58  A    between atoms: _132  and  _134
REMARK   59  A    between atoms: _134  and  _135
REMARK   60  A    between atoms: _137  and  _139
REMARK   61  A    between atoms: _139  and  _140
REMARK   62  A    between atoms: _142  and  _144
REMARK   63  A    between atoms: _144  and  _145
REMARK   64  A    between atoms: _144  and  _147
REMARK   65  A    between atoms: _147  and  _148
REMARK   66  A    between atoms: _151  and  _153
REMARK   67  A    between atoms: _153  and  _154
REMARK   68  A    between atoms: _156  and  _158
REMARK   69  A    between atoms: _158  and  _159
REMARK   70  A    between atoms: _161  and  _163
REMARK   71  A    between atoms: _163  and  _164
REMARK   72  A    between atoms: _163  and  _166
REMARK   73  A    between atoms: _166  and  _167
REMARK   74  A    between atoms: _173  and  _175
REMARK   75  A    between atoms: _175  and  _176
REMARK   76  A    between atoms: _175  and  _178
REMARK   77  A    between atoms: _178  and  _179
REMARK   78  A    between atoms: _182  and  _184
REMARK   79  A    between atoms: _184  and  _185
REMARK   80  A    between atoms: _184  and  _187
REMARK   81  A    between atoms: _187  and  _188
REMARK   82  A    between atoms: _192  and  _193
REMARK   83  A    between atoms: _198  and  _200
REMARK   84  A    between atoms: _200  and  _201
REMARK   85  A    between atoms: _200  and  _203
REMARK   86  A    between atoms: _203  and  _204
REMARK   87  A    between atoms: _207  and  _209
REMARK   88  A    between atoms: _209  and  _210
REMARK   89  A    between atoms: _209  and  _212
REMARK   90  A    between atoms: _212  and  _213
REMARK   91  A    between atoms: _218  and  _220
REMARK   92  A    between atoms: _220  and  _221
REMARK   93  A    between atoms: _220  and  _223
REMARK   94  A    between atoms: _226  and  _228
REMARK   95  A    between atoms: _228  and  _229
REMARK   96  A    between atoms: _228  and  _231
REMARK   97  A    between atoms: _231  and  _232
REMARK   98  A    between atoms: _235  and  _237
REMARK   99  A    between atoms: _237  and  _238
REMARK  100  A    between atoms: _240  and  _242
REMARK  101  A    between atoms: _242  and  _243
REMARK  102  A    between atoms: _242  and  _245
REMARK  103  A    between atoms: _245  and  _246
REMARK  104  A    between atoms: _246  and  _247
REMARK  105  A    between atoms: _247  and  _248
REMARK  106  A    between atoms: _257  and  _259
REMARK  107  A    between atoms: _259  and  _260
REMARK  108  A    between atoms: _259  and  _262
REMARK  109  A    between atoms: _262  and  _263
REMARK  110  A    between atoms: _268  and  _270
REMARK  111  A    between atoms: _270  and  _271
REMARK  112  A    between atoms: _270  and  _273
REMARK  113  A    between atoms: _273  and  _274
REMARK  114  A    between atoms: _274  and  _275
REMARK  115  A    between atoms: _275  and  _276
REMARK  116  A    between atoms: _285  and  _287
REMARK  117  A    between atoms: _287  and  _288
REMARK  118  A    between atoms: _287  and  _290
REMARK  119  A    between atoms: _290  and  _291
REMARK  120  A    between atoms: _294  and  _296
REMARK  121  A    between atoms: _296  and  _297
REMARK  122  A    between atoms: _296  and  _299
REMARK  123  A    between atoms: _299  and  _300
REMARK  124  A    between atoms: _303  and  _305
REMARK  125  A    between atoms: _305  and  _306
REMARK  126  A    between atoms: _305  and  _308
REMARK  127  A    between atoms: _308  and  _309
REMARK  128  A    between atoms: _312  and  _314
REMARK  129  A    between atoms: _314  and  _315
REMARK  130  A    between atoms: _314  and  _317
REMARK  131  A    between atoms: _317  and  _318
REMARK  132  A    between atoms: _321  and  _323
REMARK  133  A    between atoms: _323  and  _324
REMARK  134  A    between atoms: _326  and  _328
REMARK  135  A    between atoms: _328  and  _329
REMARK  136  A    between atoms: _332  and  _334
REMARK  137  A    between atoms: _334  and  _335
REMARK  138  A    between atoms: _334  and  _337
REMARK  139  A    between atoms: _337  and  _338
REMARK  140  A    between atoms: _341  and  _343
REMARK  141  A    between atoms: _343  and  _344
REMARK  142  A    between atoms: _343  and  _346
REMARK  143  A    between atoms: _346  and  _347
REMARK  144  A    between atoms: _350  and  _352
REMARK  145  A    between atoms: _352  and  _353
REMARK  146  A    between atoms: _352  and  _355
REMARK  147  A    between atoms: _355  and  _356
REMARK  148  A    between atoms: _359  and  _361
REMARK  149  A    between atoms: _361  and  _362
REMARK  150  A    between atoms: _361  and  _364
REMARK  151  A    between atoms: _364  and  _365
REMARK  152  A    between atoms: _368  and  _370
REMARK  153  A    between atoms: _370  and  _371
REMARK  154  A    between atoms: _370  and  _373
REMARK  155  A    between atoms: _373  and  _374
REMARK  156  A    between atoms: _374  and  _375
REMARK  157  A    between atoms: _375  and  _376
REMARK  158  A    between atoms: _376  and  _377
REMARK  159  A    between atoms: _381  and  _383
REMARK  160  A    between atoms: _383  and  _384
REMARK  161  A    between atoms: _383  and  _386
REMARK  162  A    between atoms: _386  and  _387
REMARK  163  A    between atoms: _387  and  _388
REMARK  164  A    between atoms: _390  and  _392
REMARK  165  A    between atoms: _392  and  _393
REMARK  166  A    between atoms: _392  and  _395
REMARK  167  A    between atoms: _395  and  _396
REMARK  168  A    between atoms: _399  and  _401
REMARK  169  A    between atoms: _401  and  _402
REMARK  170  A    between atoms: _404  and  _406
REMARK  171  A    between atoms: _406  and  _407
REMARK  172  A    between atoms: _409  and  _411
REMARK  173  A    between atoms: _411  and  _412
REMARK  174  A    between atoms: _411  and  _414
REMARK  175  A    between atoms: _414  and  _415
REMARK  176  A    between atoms: _418  and  _420
REMARK  177  A    between atoms: _420  and  _421
REMARK  178  A    between atoms: _423  and  _425
REMARK  179  A    between atoms: _425  and  _426
REMARK  180  A    between atoms: _428  and  _430
REMARK  181  A    between atoms: _430  and  _431
REMARK  182  A    between atoms: _430  and  _433
REMARK  183  A    between atoms: _433  and  _434
REMARK  184  A    between atoms: _437  and  _439
REMARK  185  A    between atoms: _439  and  _440
REMARK  186  A    between atoms: _439  and  _442
REMARK  187  A    between atoms: _445  and  _447
REMARK  188  A    between atoms: _447  and  _448
REMARK  189  A    between atoms: _447  and  _450
REMARK  190  A    between atoms: _450  and  _451
REMARK  191  A    between atoms: _455  and  _456
REMARK  192  A    between atoms: _461  and  _463
REMARK  193  A    between atoms: _463  and  _464
REMARK  194  A    between atoms: _463  and  _466
REMARK  195  A    between atoms: _466  and  _467
REMARK  196  A    between atoms: _471  and  _472
REMARK  197  A    between atoms: _477  and  _479
REMARK  198  A    between atoms: _479  and  _480
REMARK  199  A    between atoms: _479  and  _482
REMARK  200  A    between atoms: _482  and  _483
REMARK  201  A    between atoms: _486  and  _488
REMARK  202  A    between atoms: _488  and  _489
REMARK  203  A    between atoms: _488  and  _491
REMARK  204  A    between atoms: _491  and  _492
REMARK  205  A    between atoms: _497  and  _499
REMARK  206  A    between atoms: _499  and  _500
REMARK  207  A    between atoms: _499  and  _502
REMARK  208  A    between atoms: _505  and  _507
REMARK  209  A    between atoms: _507  and  _508
REMARK  210  A    between atoms: _507  and  _510
REMARK  211  A    between atoms: _510  and  _511
REMARK  212  A    between atoms: _514  and  _516
REMARK  213  A    between atoms: _516  and  _517
REMARK  214  A    between atoms: _519  and  _521
REMARK  215  A    between atoms: _521  and  _522
REMARK  216  A    between atoms: _521  and  _524
REMARK  217  A    between atoms: _524  and  _525
REMARK  218  A    between atoms: _525  and  _526
REMARK  219  A    between atoms: _526  and  _527
REMARK                            x       y       z     vdW  Elec       q    Type
REMARK                         _______ _______ _______ _____ _____    ______ ____
ROOT
ATOM      1  O   HOH     1     -14.813  16.656  39.756  0.00  0.00    +0.000 OA
ENDROOT
TORSDOF 0
REMARK  Name = ../refined-set-2016/3u7s/3u7s_pocket.pdb
REMARK  219 active torsions:
REMARK  status: ('A' for Active; 'I' for Inactive)
REMARK    1  A    between atoms: _1  and  _3
REMARK    2  A    between atoms: _3  and  _4
REMARK    3  A    between atoms: _3  and  _6
REMARK    4  A    between atoms: _6  and  _7
REMARK    5  A    between atoms: _7  and  _8
REMARK    6  A    between atoms: _8  and  _9
REMARK    7  A    between atoms: _18  and  _20
REMARK    8  A    between atoms: _20  and  _21
REMARK    9  A    between atoms: _20  and  _23
REMARK   10  A    between atoms: _23  and  _24
REMARK   11  A    between atoms: _27  and  _29
REMARK   12  A    between atoms: _29  and  _30
REMARK   13  A    between atoms: _29  and  _32
REMARK   14  A    between atoms: _32  and  _33
REMARK   15  A    between atoms: _36  and  _38
REMARK   16  A    between atoms: _38  and  _39
REMARK   17  A    between atoms: _38  and  _41
REMARK   18  A    between atoms: _41  and  _42
REMARK   19  A    between atoms: _45  and  _47
REMARK   20  A    between atoms: _47  and  _48
REMARK   21  A    between atoms: _47  and  _50
REMARK   22  A    between atoms: _50  and  _51
REMARK   23  A    between atoms: _54  and  _56
REMARK   24  A    between atoms: _56  and  _57
REMARK   25  A    between atoms: _59  and  _61
REMARK   26  A    between atoms: _61  and  _62
REMARK   27  A    between atoms: _65  and  _67
REMARK   28  A    between atoms: _67  and  _68
REMARK   29  A    between atoms: _67  and  _70
REMARK   30  A    between atoms: _70  and  _71
REMARK   31  A    between atoms: _74  and  _76
REMARK   32  A    between atoms: _76  and  _77
REMARK   33  A    between atoms: _76  and  _79
REMARK   34  A    between atoms: _79  and  _80
REMARK   35  A    between atoms: _83  and  _85
REMARK   36  A    between atoms: _85  and  _86
REMARK   37  A    between atoms: _85  and  _88
REMARK   38  A    between atoms: _88  and  _89
REMARK   39  A    between atoms: _92  and  _94
REMARK   40  A    between atoms: _94  and  _95
REMARK   41  A    between atoms: _94  and  _97
REMARK   42  A    between atoms: _97  and  _98
REMARK   43  A    between atoms: _101  and  _103
REMARK   44  A    between atoms: _103  and  _104
REMARK   45  A    between atoms: _103  and  _106
REMARK   46  A    between atoms: _106  and  _107
REMARK   47  A    between atoms: _107  and  _108
REMARK   48  A    between atoms: _108  and  _109
REMARK   49  A    between atoms: _109  and  _110
REMARK   50  A    between atoms: _114  and  _116
REMARK   51  A    between atoms: _116  and  _117
REMARK   52  A    between atoms: _116  and  _119
REMARK   53  A    between atoms: _119  and  _120
REMARK   54  A    between atoms: _120  and  _121
REMARK   55  A    between atoms: _125  and  _126
REMARK   56  A    between atoms: _125  and  _128
REMARK   57  A    between atoms: _128  and  _129
REMARK   58  A    between atoms: _132  and  _134
REMARK   59  A    between atoms: _134  and  _135
REMARK   60  A    between atoms: _137  and  _139
REMARK   61  A    between atoms: _139  and  _140
REMARK   62  A    between atoms: _142  and  _144
REMARK   63  A    between atoms: _144  and  _145
REMARK   64  A    between atoms: _144  and  _147
REMARK   65  A    between atoms: _147  and  _148
REMARK   66  A    between atoms: _151  and  _153
REMARK   67  A    between atoms: _153  and  _154
REMARK   68  A    between atoms: _156  and  _158
REMARK   69  A    between atoms: _158  and  _159
REMARK   70  A    between atoms: _161  and  _163
REMARK   71  A    between atoms: _163  and  _164
REMARK   72  A    between atoms: _163  and  _166
REMARK   73  A    between atoms: _166  and  _167
REMARK   74  A    between atoms: _173  and  _175
REMARK   75  A    between atoms: _175  and  _176
REMARK   76  A    between atoms: _175  and  _178
REMARK   77  A    between atoms: _178  and  _179
REMARK   78  A    between atoms: _182  and  _184
REMARK   79  A    between atoms: _184  and  _185
REMARK   80  A    between atoms: _184  and  _187
REMARK   81  A    between atoms: _187  and  _188
REMARK   82  A    between atoms: _192  and  _193
REMARK   83  A    between atoms: _198  and  _200
REMARK   84  A    between atoms: _200  and  _201
REMARK   85  A    between atoms: _200  and  _203
REMARK   86  A    between atoms: _203  and  _204
REMARK   87  A    between atoms: _207  and  _209
REMARK   88  A    between atoms: _209  and  _210
REMARK   89  A    between atoms: _209  and  _212
REMARK   90  A    between atoms: _212  and  _213
REMARK   91  A    between atoms: _218  and  _220
REMARK   92  A    between atoms: _220  and  _221
REMARK   93  A    between atoms: _220  and  _223
REMARK   94  A    between atoms: _226  and  _228
REMARK   95  A    between atoms: _228  and  _229
REMARK   96  A    between atoms: _228  and  _231
REMARK   97  A    between atoms: _231  and  _232
REMARK   98  A    between atoms: _235  and  _237
REMARK   99  A    between atoms: _237  and  _238
REMARK  100  A    between atoms: _240  and  _242
REMARK  101  A    between atoms: _242  and  _243
REMARK  102  A    between atoms: _242  and  _245
REMARK  103  A    between atoms: _245  and  _246
REMARK  104  A    between atoms: _246  and  _247
REMARK  105  A    between atoms: _247  and  _248
REMARK  106  A    between atoms: _257  and  _259
REMARK  107  A    between atoms: _259  and  _260
REMARK  108  A    between atoms: _259  and  _262
REMARK  109  A    between atoms: _262  and  _263
REMARK  110  A    between atoms: _268  and  _270
REMARK  111  A    between atoms: _270  and  _271
REMARK  112  A    between atoms: _270  and  _273
REMARK  113  A    between atoms: _273  and  _274
REMARK  114  A    between atoms: _274  and  _275
REMARK  115  A    between atoms: _275  and  _276
REMARK  116  A    between atoms: _285  and  _287
REMARK  117  A    between atoms: _287  and  _288
REMARK  118  A    between atoms: _287  and  _290
REMARK  119  A    between atoms: _290  and  _291
REMARK  120  A    between atoms: _294  and  _296
REMARK  121  A    between atoms: _296  and  _297
REMARK  122  A    between atoms: _296  and  _299
REMARK  123  A    between atoms: _299  and  _300
REMARK  124  A    between atoms: _303  and  _305
REMARK  125  A    between atoms: _305  and  _306
REMARK  126  A    between atoms: _305  and  _308
REMARK  127  A    between atoms: _308  and  _309
REMARK  128  A    between atoms: _312  and  _314
REMARK  129  A    between atoms: _314  and  _315
REMARK  130  A    between atoms: _314  and  _317
REMARK  131  A    between atoms: _317  and  _318
REMARK  132  A    between atoms: _321  and  _323
REMARK  133  A    between atoms: _323  and  _324
REMARK  134  A    between atoms: _326  and  _328
REMARK  135  A    between atoms: _328  and  _329
REMARK  136  A    between atoms: _332  and  _334
REMARK  137  A    between atoms: _334  and  _335
REMARK  138  A    between atoms: _334  and  _337
REMARK  139  A    between atoms: _337  and  _338
REMARK  140  A    between atoms: _341  and  _343
REMARK  141  A    between atoms: _343  and  _344
REMARK  142  A    between atoms: _343  and  _346
REMARK  143  A    between atoms: _346  and  _347
REMARK  144  A    between atoms: _350  and  _352
REMARK  145  A    between atoms: _352  and  _353
REMARK  146  A    between atoms: _352  and  _355
REMARK  147  A    between atoms: _355  and  _356
REMARK  148  A    between atoms: _359  and  _361
REMARK  149  A    between atoms: _361  and  _362
REMARK  150  A    between atoms: _361  and  _364
REMARK  151  A    between atoms: _364  and  _365
REMARK  152  A    between atoms: _368  and  _370
REMARK  153  A    between atoms: _370  and  _371
REMARK  154  A    between atoms: _370  and  _373
REMARK  155  A    between atoms: _373  and  _374
REMARK  156  A    between atoms: _374  and  _375
REMARK  157  A    between atoms: _375  and  _376
REMARK  158  A    between atoms: _376  and  _377
REMARK  159  A    between atoms: _381  and  _383
REMARK  160  A    between atoms: _383  and  _384
REMARK  161  A    between atoms: _383  and  _386
REMARK  162  A    between atoms: _386  and  _387
REMARK  163  A    between atoms: _387  and  _388
REMARK  164  A    between atoms: _390  and  _392
REMARK  165  A    between atoms: _392  and  _393
REMARK  166  A    between atoms: _392  and  _395
REMARK  167  A    between atoms: _395  and  _396
REMARK  168  A    between atoms: _399  and  _401
REMARK  169  A    between atoms: _401  and  _402
REMARK  170  A    between atoms: _404  and  _406
REMARK  171  A    between atoms: _406  and  _407
REMARK  172  A    between atoms: _409  and  _411
REMARK  173  A    between atoms: _411  and  _412
REMARK  174  A    between atoms: _411  and  _414
REMARK  175  A    between atoms: _414  and  _415
REMARK  176  A    between atoms: _418  and  _420
REMARK  177  A    between atoms: _420  and  _421
REMARK  178  A    between atoms: _423  and  _425
REMARK  179  A    between atoms: _425  and  _426
REMARK  180  A    between atoms: _428  and  _430
REMARK  181  A    between atoms: _430  and  _431
REMARK  182  A    between atoms: _430  and  _433
REMARK  183  A    between atoms: _433  and  _434
REMARK  184  A    between atoms: _437  and  _439
REMARK  185  A    between atoms: _439  and  _440
REMARK  186  A    between atoms: _439  and  _442
REMARK  187  A    between atoms: _445  and  _447
REMARK  188  A    between atoms: _447  and  _448
REMARK  189  A    between atoms: _447  and  _450
REMARK  190  A    between atoms: _450  and  _451
REMARK  191  A    between atoms: _455  and  _456
REMARK  192  A    between atoms: _461  and  _463
REMARK  193  A    between atoms: _463  and  _464
REMARK  194  A    between atoms: _463  and  _466
REMARK  195  A    between atoms: _466  and  _467
REMARK  196  A    between atoms: _471  and  _472
REMARK  197  A    between atoms: _477  and  _479
REMARK  198  A    between atoms: _479  and  _480
REMARK  199  A    between atoms: _479  and  _482
REMARK  200  A    between atoms: _482  and  _483
REMARK  201  A    between atoms: _486  and  _488
REMARK  202  A    between atoms: _488  and  _489
REMARK  203  A    between atoms: _488  and  _491
REMARK  204  A    between atoms: _491  and  _492
REMARK  205  A    between atoms: _497  and  _499
REMARK  206  A    between atoms: _499  and  _500
REMARK  207  A    between atoms: _499  and  _502
REMARK  208  A    between atoms: _505  and  _507
REMARK  209  A    between atoms: _507  and  _508
REMARK  210  A    between atoms: _507  and  _510
REMARK  211  A    between atoms: _510  and  _511
REMARK  212  A    between atoms: _514  and  _516
REMARK  213  A    between atoms: _516  and  _517
REMARK  214  A    between atoms: _519  and  _521
REMARK  215  A    between atoms: _521  and  _522
REMARK  216  A    between atoms: _521  and  _524
REMARK  217  A    between atoms: _524  and  _525
REMARK  218  A    between atoms: _525  and  _526
REMARK  219  A    between atoms: _526  and  _527
REMARK                            x       y       z     vdW  Elec       q    Type
REMARK                         _______ _______ _______ _____ _____    ______ ____
ROOT
ATOM      1  O   HOH     1       2.741  21.799  26.894  0.00  0.00    +0.000 OA
ENDROOT
TORSDOF 0
REMARK  Name = ../refined-set-2016/3u7s/3u7s_pocket.pdb
REMARK  219 active torsions:
REMARK  status: ('A' for Active; 'I' for Inactive)
REMARK    1  A    between atoms: _1  and  _3
REMARK    2  A    between atoms: _3  and  _4
REMARK    3  A    between atoms: _3  and  _6
REMARK    4  A    between atoms: _6  and  _7
REMARK    5  A    between atoms: _7  and  _8
REMARK    6  A    between atoms: _8  and  _9
REMARK    7  A    between atoms: _18  and  _20
REMARK    8  A    between atoms: _20  and  _21
REMARK    9  A    between atoms: _20  and  _23
REMARK   10  A    between atoms: _23  and  _24
REMARK   11  A    between atoms: _27  and  _29
REMARK   12  A    between atoms: _29  and  _30
REMARK   13  A    between atoms: _29  and  _32
REMARK   14  A    between atoms: _32  and  _33
REMARK   15  A    between atoms: _36  and  _38
REMARK   16  A    between atoms: _38  and  _39
REMARK   17  A    between atoms: _38  and  _41
REMARK   18  A    between atoms: _41  and  _42
REMARK   19  A    between atoms: _45  and  _47
REMARK   20  A    between atoms: _47  and  _48
REMARK   21  A    between atoms: _47  and  _50
REMARK   22  A    between atoms: _50  and  _51
REMARK   23  A    between atoms: _54  and  _56
REMARK   24  A    between atoms: _56  and  _57
REMARK   25  A    between atoms: _59  and  _61
REMARK   26  A    between atoms: _61  and  _62
REMARK   27  A    between atoms: _65  and  _67
REMARK   28  A    between atoms: _67  and  _68
REMARK   29  A    between atoms: _67  and  _70
REMARK   30  A    between atoms: _70  and  _71
REMARK   31  A    between atoms: _74  and  _76
REMARK   32  A    between atoms: _76  and  _77
REMARK   33  A    between atoms: _76  and  _79
REMARK   34  A    between atoms: _79  and  _80
REMARK   35  A    between atoms: _83  and  _85
REMARK   36  A    between atoms: _85  and  _86
REMARK   37  A    between atoms: _85  and  _88
REMARK   38  A    between atoms: _88  and  _89
REMARK   39  A    between atoms: _92  and  _94
REMARK   40  A    between atoms: _94  and  _95
REMARK   41  A    between atoms: _94  and  _97
REMARK   42  A    between atoms: _97  and  _98
REMARK   43  A    between atoms: _101  and  _103
REMARK   44  A    between atoms: _103  and  _104
REMARK   45  A    between atoms: _103  and  _106
REMARK   46  A    between atoms: _106  and  _107
REMARK   47  A    between atoms: _107  and  _108
REMARK   48  A    between atoms: _108  and  _109
REMARK   49  A    between atoms: _109  and  _110
REMARK   50  A    between atoms: _114  and  _116
REMARK   51  A    between atoms: _116  and  _117
REMARK   52  A    between atoms: _116  and  _119
REMARK   53  A    between atoms: _119  and  _120
REMARK   54  A    between atoms: _120  and  _121
REMARK   55  A    between atoms: _125  and  _126
REMARK   56  A    between atoms: _125  and  _128
REMARK   57  A    between atoms: _128  and  _129
REMARK   58  A    between atoms: _132  and  _134
REMARK   59  A    between atoms: _134  and  _135
REMARK   60  A    between atoms: _137  and  _139
REMARK   61  A    between atoms: _139  and  _140
REMARK   62  A    between atoms: _142  and  _144
REMARK   63  A    between atoms: _144  and  _145
REMARK   64  A    between atoms: _144  and  _147
REMARK   65  A    between atoms: _147  and  _148
REMARK   66  A    between atoms: _151  and  _153
REMARK   67  A    between atoms: _153  and  _154
REMARK   68  A    between atoms: _156  and  _158
REMARK   69  A    between atoms: _158  and  _159
REMARK   70  A    between atoms: _161  and  _163
REMARK   71  A    between atoms: _163  and  _164
REMARK   72  A    between atoms: _163  and  _166
REMARK   73  A    between atoms: _166  and  _167
REMARK   74  A    between atoms: _173  and  _175
REMARK   75  A    between atoms: _175  and  _176
REMARK   76  A    between atoms: _175  and  _178
REMARK   77  A    between atoms: _178  and  _179
REMARK   78  A    between atoms: _182  and  _184
REMARK   79  A    between atoms: _184  and  _185
REMARK   80  A    between atoms: _184  and  _187
REMARK   81  A    between atoms: _187  and  _188
REMARK   82  A    between atoms: _192  and  _193
REMARK   83  A    between atoms: _198  and  _200
REMARK   84  A    between atoms: _200  and  _201
REMARK   85  A    between atoms: _200  and  _203
REMARK   86  A    between atoms: _203  and  _204
REMARK   87  A    between atoms: _207  and  _209
REMARK   88  A    between atoms: _209  and  _210
REMARK   89  A    between atoms: _209  and  _212
REMARK   90  A    between atoms: _212  and  _213
REMARK   91  A    between atoms: _218  and  _220
REMARK   92  A    between atoms: _220  and  _221
REMARK   93  A    between atoms: _220  and  _223
REMARK   94  A    between atoms: _226  and  _228
REMARK   95  A    between atoms: _228  and  _229
REMARK   96  A    between atoms: _228  and  _231
REMARK   97  A    between atoms: _231  and  _232
REMARK   98  A    between atoms: _235  and  _237
REMARK   99  A    between atoms: _237  and  _238
REMARK  100  A    between atoms: _240  and  _242
REMARK  101  A    between atoms: _242  and  _243
REMARK  102  A    between atoms: _242  and  _245
REMARK  103  A    between atoms: _245  and  _246
REMARK  104  A    between atoms: _246  and  _247
REMARK  105  A    between atoms: _247  and  _248
REMARK  106  A    between atoms: _257  and  _259
REMARK  107  A    between atoms: _259  and  _260
REMARK  108  A    between atoms: _259  and  _262
REMARK  109  A    between atoms: _262  and  _263
REMARK  110  A    between atoms: _268  and  _270
REMARK  111  A    between atoms: _270  and  _271
REMARK  112  A    between atoms: _270  and  _273
REMARK  113  A    between atoms: _273  and  _274
REMARK  114  A    between atoms: _274  and  _275
REMARK  115  A    between atoms: _275  and  _276
REMARK  116  A    between atoms: _285  and  _287
REMARK  117  A    between atoms: _287  and  _288
REMARK  118  A    between atoms: _287  and  _290
REMARK  119  A    between atoms: _290  and  _291
REMARK  120  A    between atoms: _294  and  _296
REMARK  121  A    between atoms: _296  and  _297
REMARK  122  A    between atoms: _296  and  _299
REMARK  123  A    between atoms: _299  and  _300
REMARK  124  A    between atoms: _303  and  _305
REMARK  125  A    between atoms: _305  and  _306
REMARK  126  A    between atoms: _305  and  _308
REMARK  127  A    between atoms: _308  and  _309
REMARK  128  A    between atoms: _312  and  _314
REMARK  129  A    between atoms: _314  and  _315
REMARK  130  A    between atoms: _314  and  _317
REMARK  131  A    between atoms: _317  and  _318
REMARK  132  A    between atoms: _321  and  _323
REMARK  133  A    between atoms: _323  and  _324
REMARK  134  A    between atoms: _326  and  _328
REMARK  135  A    between atoms: _328  and  _329
REMARK  136  A    between atoms: _332  and  _334
REMARK  137  A    between atoms: _334  and  _335
REMARK  138  A    between atoms: _334  and  _337
REMARK  139  A    between atoms: _337  and  _338
REMARK  140  A    between atoms: _341  and  _343
REMARK  141  A    between atoms: _343  and  _344
REMARK  142  A    between atoms: _343  and  _346
REMARK  143  A    between atoms: _346  and  _347
REMARK  144  A    between atoms: _350  and  _352
REMARK  145  A    between atoms: _352  and  _353
REMARK  146  A    between atoms: _352  and  _355
REMARK  147  A    between atoms: _355  and  _356
REMARK  148  A    between atoms: _359  and  _361
REMARK  149  A    between atoms: _361  and  _362
REMARK  150  A    between atoms: _361  and  _364
REMARK  151  A    between atoms: _364  and  _365
REMARK  152  A    between atoms: _368  and  _370
REMARK  153  A    between atoms: _370  and  _371
REMARK  154  A    between atoms: _370  and  _373
REMARK  155  A    between atoms: _373  and  _374
REMARK  156  A    between atoms: _374  and  _375
REMARK  157  A    between atoms: _375  and  _376
REMARK  158  A    between atoms: _376  and  _377
REMARK  159  A    between atoms: _381  and  _383
REMARK  160  A    between atoms: _383  and  _384
REMARK  161  A    between atoms: _383  and  _386
REMARK  162  A    between atoms: _386  and  _387
REMARK  163  A    between atoms: _387  and  _388
REMARK  164  A    between atoms: _390  and  _392
REMARK  165  A    between atoms: _392  and  _393
REMARK  166  A    between atoms: _392  and  _395
REMARK  167  A    between atoms: _395  and  _396
REMARK  168  A    between atoms: _399  and  _401
REMARK  169  A    between atoms: _401  and  _402
REMARK  170  A    between atoms: _404  and  _406
REMARK  171  A    between atoms: _406  and  _407
REMARK  172  A    between atoms: _409  and  _411
REMARK  173  A    between atoms: _411  and  _412
REMARK  174  A    between atoms: _411  and  _414
REMARK  175  A    between atoms: _414  and  _415
REMARK  176  A    between atoms: _418  and  _420
REMARK  177  A    between atoms: _420  and  _421
REMARK  178  A    between atoms: _423  and  _425
REMARK  179  A    between atoms: _425  and  _426
REMARK  180  A    between atoms: _428  and  _430
REMARK  181  A    between atoms: _430  and  _431
REMARK  182  A    between atoms: _430  and  _433
REMARK  183  A    between atoms: _433  and  _434
REMARK  184  A    between atoms: _437  and  _439
REMARK  185  A    between atoms: _439  and  _440
REMARK  186  A    between atoms: _439  and  _442
REMARK  187  A    between atoms: _445  and  _447
REMARK  188  A    between atoms: _447  and  _448
REMARK  189  A    between atoms: _447  and  _450
REMARK  190  A    between atoms: _450  and  _451
REMARK  191  A    between atoms: _455  and  _456
REMARK  192  A    between atoms: _461  and  _463
REMARK  193  A    between atoms: _463  and  _464
REMARK  194  A    between atoms: _463  and  _466
REMARK  195  A    between atoms: _466  and  _467
REMARK  196  A    between atoms: _471  and  _472
REMARK  197  A    between atoms: _477  and  _479
REMARK  198  A    between atoms: _479  and  _480
REMARK  199  A    between atoms: _479  and  _482
REMARK  200  A    between atoms: _482  and  _483
REMARK  201  A    between atoms: _486  and  _488
REMARK  202  A    between atoms: _488  and  _489
REMARK  203  A    between atoms: _488  and  _491
REMARK  204  A    between atoms: _491  and  _492
REMARK  205  A    between atoms: _497  and  _499
REMARK  206  A    between atoms: _499  and  _500
REMARK  207  A    between atoms: _499  and  _502
REMARK  208  A    between atoms: _505  and  _507
REMARK  209  A    between atoms: _507  and  _508
REMARK  210  A    between atoms: _507  and  _510
REMARK  211  A    between atoms: _510  and  _511
REMARK  212  A    between atoms: _514  and  _516
REMARK  213  A    between atoms: _516  and  _517
REMARK  214  A    between atoms: _519  and  _521
REMARK  215  A    between atoms: _521  and  _522
REMARK  216  A    between atoms: _521  and  _524
REMARK  217  A    between atoms: _524  and  _525
REMARK  218  A    between atoms: _525  and  _526
REMARK  219  A    between atoms: _526  and  _527
REMARK                            x       y       z     vdW  Elec       q    Type
REMARK                         _______ _______ _______ _____ _____    ______ ____
ROOT
ATOM      1  O   HOH     1     -10.924  16.142  42.482  0.00  0.00    +0.000 OA
ENDROOT
TORSDOF 0
REMARK  Name = ../refined-set-2016/3u7s/3u7s_pocket.pdb
REMARK  219 active torsions:
REMARK  status: ('A' for Active; 'I' for Inactive)
REMARK    1  A    between atoms: _1  and  _3
REMARK    2  A    between atoms: _3  and  _4
REMARK    3  A    between atoms: _3  and  _6
REMARK    4  A    between atoms: _6  and  _7
REMARK    5  A    between atoms: _7  and  _8
REMARK    6  A    between atoms: _8  and  _9
REMARK    7  A    between atoms: _18  and  _20
REMARK    8  A    between atoms: _20  and  _21
REMARK    9  A    between atoms: _20  and  _23
REMARK   10  A    between atoms: _23  and  _24
REMARK   11  A    between atoms: _27  and  _29
REMARK   12  A    between atoms: _29  and  _30
REMARK   13  A    between atoms: _29  and  _32
REMARK   14  A    between atoms: _32  and  _33
REMARK   15  A    between atoms: _36  and  _38
REMARK   16  A    between atoms: _38  and  _39
REMARK   17  A    between atoms: _38  and  _41
REMARK   18  A    between atoms: _41  and  _42
REMARK   19  A    between atoms: _45  and  _47
REMARK   20  A    between atoms: _47  and  _48
REMARK   21  A    between atoms: _47  and  _50
REMARK   22  A    between atoms: _50  and  _51
REMARK   23  A    between atoms: _54  and  _56
REMARK   24  A    between atoms: _56  and  _57
REMARK   25  A    between atoms: _59  and  _61
REMARK   26  A    between atoms: _61  and  _62
REMARK   27  A    between atoms: _65  and  _67
REMARK   28  A    between atoms: _67  and  _68
REMARK   29  A    between atoms: _67  and  _70
REMARK   30  A    between atoms: _70  and  _71
REMARK   31  A    between atoms: _74  and  _76
REMARK   32  A    between atoms: _76  and  _77
REMARK   33  A    between atoms: _76  and  _79
REMARK   34  A    between atoms: _79  and  _80
REMARK   35  A    between atoms: _83  and  _85
REMARK   36  A    between atoms: _85  and  _86
REMARK   37  A    between atoms: _85  and  _88
REMARK   38  A    between atoms: _88  and  _89
REMARK   39  A    between atoms: _92  and  _94
REMARK   40  A    between atoms: _94  and  _95
REMARK   41  A    between atoms: _94  and  _97
REMARK   42  A    between atoms: _97  and  _98
REMARK   43  A    between atoms: _101  and  _103
REMARK   44  A    between atoms: _103  and  _104
REMARK   45  A    between atoms: _103  and  _106
REMARK   46  A    between atoms: _106  and  _107
REMARK   47  A    between atoms: _107  and  _108
REMARK   48  A    between atoms: _108  and  _109
REMARK   49  A    between atoms: _109  and  _110
REMARK   50  A    between atoms: _114  and  _116
REMARK   51  A    between atoms: _116  and  _117
REMARK   52  A    between atoms: _116  and  _119
REMARK   53  A    between atoms: _119  and  _120
REMARK   54  A    between atoms: _120  and  _121
REMARK   55  A    between atoms: _125  and  _126
REMARK   56  A    between atoms: _125  and  _128
REMARK   57  A    between atoms: _128  and  _129
REMARK   58  A    between atoms: _132  and  _134
REMARK   59  A    between atoms: _134  and  _135
REMARK   60  A    between atoms: _137  and  _139
REMARK   61  A    between atoms: _139  and  _140
REMARK   62  A    between atoms: _142  and  _144
REMARK   63  A    between atoms: _144  and  _145
REMARK   64  A    between atoms: _144  and  _147
REMARK   65  A    between atoms: _147  and  _148
REMARK   66  A    between atoms: _151  and  _153
REMARK   67  A    between atoms: _153  and  _154
REMARK   68  A    between atoms: _156  and  _158
REMARK   69  A    between atoms: _158  and  _159
REMARK   70  A    between atoms: _161  and  _163
REMARK   71  A    between atoms: _163  and  _164
REMARK   72  A    between atoms: _163  and  _166
REMARK   73  A    between atoms: _166  and  _167
REMARK   74  A    between atoms: _173  and  _175
REMARK   75  A    between atoms: _175  and  _176
REMARK   76  A    between atoms: _175  and  _178
REMARK   77  A    between atoms: _178  and  _179
REMARK   78  A    between atoms: _182  and  _184
REMARK   79  A    between atoms: _184  and  _185
REMARK   80  A    between atoms: _184  and  _187
REMARK   81  A    between atoms: _187  and  _188
REMARK   82  A    between atoms: _192  and  _193
REMARK   83  A    between atoms: _198  and  _200
REMARK   84  A    between atoms: _200  and  _201
REMARK   85  A    between atoms: _200  and  _203
REMARK   86  A    between atoms: _203  and  _204
REMARK   87  A    between atoms: _207  and  _209
REMARK   88  A    between atoms: _209  and  _210
REMARK   89  A    between atoms: _209  and  _212
REMARK   90  A    between atoms: _212  and  _213
REMARK   91  A    between atoms: _218  and  _220
REMARK   92  A    between atoms: _220  and  _221
REMARK   93  A    between atoms: _220  and  _223
REMARK   94  A    between atoms: _226  and  _228
REMARK   95  A    between atoms: _228  and  _229
REMARK   96  A    between atoms: _228  and  _231
REMARK   97  A    between atoms: _231  and  _232
REMARK   98  A    between atoms: _235  and  _237
REMARK   99  A    between atoms: _237  and  _238
REMARK  100  A    between atoms: _240  and  _242
REMARK  101  A    between atoms: _242  and  _243
REMARK  102  A    between atoms: _242  and  _245
REMARK  103  A    between atoms: _245  and  _246
REMARK  104  A    between atoms: _246  and  _247
REMARK  105  A    between atoms: _247  and  _248
REMARK  106  A    between atoms: _257  and  _259
REMARK  107  A    between atoms: _259  and  _260
REMARK  108  A    between atoms: _259  and  _262
REMARK  109  A    between atoms: _262  and  _263
REMARK  110  A    between atoms: _268  and  _270
REMARK  111  A    between atoms: _270  and  _271
REMARK  112  A    between atoms: _270  and  _273
REMARK  113  A    between atoms: _273  and  _274
REMARK  114  A    between atoms: _274  and  _275
REMARK  115  A    between atoms: _275  and  _276
REMARK  116  A    between atoms: _285  and  _287
REMARK  117  A    between atoms: _287  and  _288
REMARK  118  A    between atoms: _287  and  _290
REMARK  119  A    between atoms: _290  and  _291
REMARK  120  A    between atoms: _294  and  _296
REMARK  121  A    between atoms: _296  and  _297
REMARK  122  A    between atoms: _296  and  _299
REMARK  123  A    between atoms: _299  and  _300
REMARK  124  A    between atoms: _303  and  _305
REMARK  125  A    between atoms: _305  and  _306
REMARK  126  A    between atoms: _305  and  _308
REMARK  127  A    between atoms: _308  and  _309
REMARK  128  A    between atoms: _312  and  _314
REMARK  129  A    between atoms: _314  and  _315
REMARK  130  A    between atoms: _314  and  _317
REMARK  131  A    between atoms: _317  and  _318
REMARK  132  A    between atoms: _321  and  _323
REMARK  133  A    between atoms: _323  and  _324
REMARK  134  A    between atoms: _326  and  _328
REMARK  135  A    between atoms: _328  and  _329
REMARK  136  A    between atoms: _332  and  _334
REMARK  137  A    between atoms: _334  and  _335
REMARK  138  A    between atoms: _334  and  _337
REMARK  139  A    between atoms: _337  and  _338
REMARK  140  A    between atoms: _341  and  _343
REMARK  141  A    between atoms: _343  and  _344
REMARK  142  A    between atoms: _343  and  _346
REMARK  143  A    between atoms: _346  and  _347
REMARK  144  A    between atoms: _350  and  _352
REMARK  145  A    between atoms: _352  and  _353
REMARK  146  A    between atoms: _352  and  _355
REMARK  147  A    between atoms: _355  and  _356
REMARK  148  A    between atoms: _359  and  _361
REMARK  149  A    between atoms: _361  and  _362
REMARK  150  A    between atoms: _361  and  _364
REMARK  151  A    between atoms: _364  and  _365
REMARK  152  A    between atoms: _368  and  _370
REMARK  153  A    between atoms: _370  and  _371
REMARK  154  A    between atoms: _370  and  _373
REMARK  155  A    between atoms: _373  and  _374
REMARK  156  A    between atoms: _374  and  _375
REMARK  157  A    between atoms: _375  and  _376
REMARK  158  A    between atoms: _376  and  _377
REMARK  159  A    between atoms: _381  and  _383
REMARK  160  A    between atoms: _383  and  _384
REMARK  161  A    between atoms: _383  and  _386
REMARK  162  A    between atoms: _386  and  _387
REMARK  163  A    between atoms: _387  and  _388
REMARK  164  A    between atoms: _390  and  _392
REMARK  165  A    between atoms: _392  and  _393
REMARK  166  A    between atoms: _392  and  _395
REMARK  167  A    between atoms: _395  and  _396
REMARK  168  A    between atoms: _399  and  _401
REMARK  169  A    between atoms: _401  and  _402
REMARK  170  A    between atoms: _404  and  _406
REMARK  171  A    between atoms: _406  and  _407
REMARK  172  A    between atoms: _409  and  _411
REMARK  173  A    between atoms: _411  and  _412
REMARK  174  A    between atoms: _411  and  _414
REMARK  175  A    between atoms: _414  and  _415
REMARK  176  A    between atoms: _418  and  _420
REMARK  177  A    between atoms: _420  and  _421
REMARK  178  A    between atoms: _423  and  _425
REMARK  179  A    between atoms: _425  and  _426
REMARK  180  A    between atoms: _428  and  _430
REMARK  181  A    between atoms: _430  and  _431
REMARK  182  A    between atoms: _430  and  _433
REMARK  183  A    between atoms: _433  and  _434
REMARK  184  A    between atoms: _437  and  _439
REMARK  185  A    between atoms: _439  and  _440
REMARK  186  A    between atoms: _439  and  _442
REMARK  187  A    between atoms: _445  and  _447
REMARK  188  A    between atoms: _447  and  _448
REMARK  189  A    between atoms: _447  and  _450
REMARK  190  A    between atoms: _450  and  _451
REMARK  191  A    between atoms: _455  and  _456
REMARK  192  A    between atoms: _461  and  _463
REMARK  193  A    between atoms: _463  and  _464
REMARK  194  A    between atoms: _463  and  _466
REMARK  195  A    between atoms: _466  and  _467
REMARK  196  A    between atoms: _471  and  _472
REMARK  197  A    between atoms: _477  and  _479
REMARK  198  A    between atoms: _479  and  _480
REMARK  199  A    between atoms: _479  and  _482
REMARK  200  A    between atoms: _482  and  _483
REMARK  201  A    between atoms: _486  and  _488
REMARK  202  A    between atoms: _488  and  _489
REMARK  203  A    between atoms: _488  and  _491
REMARK  204  A    between atoms: _491  and  _492
REMARK  205  A    between atoms: _497  and  _499
REMARK  206  A    between atoms: _499  and  _500
REMARK  207  A    between atoms: _499  and  _502
REMARK  208  A    between atoms: _505  and  _507
REMARK  209  A    between atoms: _507  and  _508
REMARK  210  A    between atoms: _507  and  _510
REMARK  211  A    between atoms: _510  and  _511
REMARK  212  A    between atoms: _514  and  _516
REMARK  213  A    between atoms: _516  and  _517
REMARK  214  A    between atoms: _519  and  _521
REMARK  215  A    between atoms: _521  and  _522
REMARK  216  A    between atoms: _521  and  _524
REMARK  217  A    between atoms: _524  and  _525
REMARK  218  A    between atoms: _525  and  _526
REMARK  219  A    between atoms: _526  and  _527
REMARK                            x       y       z     vdW  Elec       q    Type
REMARK                         _______ _______ _______ _____ _____    ______ ____
ROOT
ATOM      1  O   HOH     1     -15.942  16.876  31.590  0.00  0.00    +0.000 OA
ENDROOT
TORSDOF 0
REMARK  Name = ../refined-set-2016/3u7s/3u7s_pocket.pdb
REMARK  219 active torsions:
REMARK  status: ('A' for Active; 'I' for Inactive)
REMARK    1  A    between atoms: _1  and  _3
REMARK    2  A    between atoms: _3  and  _4
REMARK    3  A    between atoms: _3  and  _6
REMARK    4  A    between atoms: _6  and  _7
REMARK    5  A    between atoms: _7  and  _8
REMARK    6  A    between atoms: _8  and  _9
REMARK    7  A    between atoms: _18  and  _20
REMARK    8  A    between atoms: _20  and  _21
REMARK    9  A    between atoms: _20  and  _23
REMARK   10  A    between atoms: _23  and  _24
REMARK   11  A    between atoms: _27  and  _29
REMARK   12  A    between atoms: _29  and  _30
REMARK   13  A    between atoms: _29  and  _32
REMARK   14  A    between atoms: _32  and  _33
REMARK   15  A    between atoms: _36  and  _38
REMARK   16  A    between atoms: _38  and  _39
REMARK   17  A    between atoms: _38  and  _41
REMARK   18  A    between atoms: _41  and  _42
REMARK   19  A    between atoms: _45  and  _47
REMARK   20  A    between atoms: _47  and  _48
REMARK   21  A    between atoms: _47  and  _50
REMARK   22  A    between atoms: _50  and  _51
REMARK   23  A    between atoms: _54  and  _56
REMARK   24  A    between atoms: _56  and  _57
REMARK   25  A    between atoms: _59  and  _61
REMARK   26  A    between atoms: _61  and  _62
REMARK   27  A    between atoms: _65  and  _67
REMARK   28  A    between atoms: _67  and  _68
REMARK   29  A    between atoms: _67  and  _70
REMARK   30  A    between atoms: _70  and  _71
REMARK   31  A    between atoms: _74  and  _76
REMARK   32  A    between atoms: _76  and  _77
REMARK   33  A    between atoms: _76  and  _79
REMARK   34  A    between atoms: _79  and  _80
REMARK   35  A    between atoms: _83  and  _85
REMARK   36  A    between atoms: _85  and  _86
REMARK   37  A    between atoms: _85  and  _88
REMARK   38  A    between atoms: _88  and  _89
REMARK   39  A    between atoms: _92  and  _94
REMARK   40  A    between atoms: _94  and  _95
REMARK   41  A    between atoms: _94  and  _97
REMARK   42  A    between atoms: _97  and  _98
REMARK   43  A    between atoms: _101  and  _103
REMARK   44  A    between atoms: _103  and  _104
REMARK   45  A    between atoms: _103  and  _106
REMARK   46  A    between atoms: _106  and  _107
REMARK   47  A    between atoms: _107  and  _108
REMARK   48  A    between atoms: _108  and  _109
REMARK   49  A    between atoms: _109  and  _110
REMARK   50  A    between atoms: _114  and  _116
REMARK   51  A    between atoms: _116  and  _117
REMARK   52  A    between atoms: _116  and  _119
REMARK   53  A    between atoms: _119  and  _120
REMARK   54  A    between atoms: _120  and  _121
REMARK   55  A    between atoms: _125  and  _126
REMARK   56  A    between atoms: _125  and  _128
REMARK   57  A    between atoms: _128  and  _129
REMARK   58  A    between atoms: _132  and  _134
REMARK   59  A    between atoms: _134  and  _135
REMARK   60  A    between atoms: _137  and  _139
REMARK   61  A    between atoms: _139  and  _140
REMARK   62  A    between atoms: _142  and  _144
REMARK   63  A    between atoms: _144  and  _145
REMARK   64  A    between atoms: _144  and  _147
REMARK   65  A    between atoms: _147  and  _148
REMARK   66  A    between atoms: _151  and  _153
REMARK   67  A    between atoms: _153  and  _154
REMARK   68  A    between atoms: _156  and  _158
REMARK   69  A    between atoms: _158  and  _159
REMARK   70  A    between atoms: _161  and  _163
REMARK   71  A    between atoms: _163  and  _164
REMARK   72  A    between atoms: _163  and  _166
REMARK   73  A    between atoms: _166  and  _167
REMARK   74  A    between atoms: _173  and  _175
REMARK   75  A    between atoms: _175  and  _176
REMARK   76  A    between atoms: _175  and  _178
REMARK   77  A    between atoms: _178  and  _179
REMARK   78  A    between atoms: _182  and  _184
REMARK   79  A    between atoms: _184  and  _185
REMARK   80  A    between atoms: _184  and  _187
REMARK   81  A    between atoms: _187  and  _188
REMARK   82  A    between atoms: _192  and  _193
REMARK   83  A    between atoms: _198  and  _200
REMARK   84  A    between atoms: _200  and  _201
REMARK   85  A    between atoms: _200  and  _203
REMARK   86  A    between atoms: _203  and  _204
REMARK   87  A    between atoms: _207  and  _209
REMARK   88  A    between atoms: _209  and  _210
REMARK   89  A    between atoms: _209  and  _212
REMARK   90  A    between atoms: _212  and  _213
REMARK   91  A    between atoms: _218  and  _220
REMARK   92  A    between atoms: _220  and  _221
REMARK   93  A    between atoms: _220  and  _223
REMARK   94  A    between atoms: _226  and  _228
REMARK   95  A    between atoms: _228  and  _229
REMARK   96  A    between atoms: _228  and  _231
REMARK   97  A    between atoms: _231  and  _232
REMARK   98  A    between atoms: _235  and  _237
REMARK   99  A    between atoms: _237  and  _238
REMARK  100  A    between atoms: _240  and  _242
REMARK  101  A    between atoms: _242  and  _243
REMARK  102  A    between atoms: _242  and  _245
REMARK  103  A    between atoms: _245  and  _246
REMARK  104  A    between atoms: _246  and  _247
REMARK  105  A    between atoms: _247  and  _248
REMARK  106  A    between atoms: _257  and  _259
REMARK  107  A    between atoms: _259  and  _260
REMARK  108  A    between atoms: _259  and  _262
REMARK  109  A    between atoms: _262  and  _263
REMARK  110  A    between atoms: _268  and  _270
REMARK  111  A    between atoms: _270  and  _271
REMARK  112  A    between atoms: _270  and  _273
REMARK  113  A    between atoms: _273  and  _274
REMARK  114  A    between atoms: _274  and  _275
REMARK  115  A    between atoms: _275  and  _276
REMARK  116  A    between atoms: _285  and  _287
REMARK  117  A    between atoms: _287  and  _288
REMARK  118  A    between atoms: _287  and  _290
REMARK  119  A    between atoms: _290  and  _291
REMARK  120  A    between atoms: _294  and  _296
REMARK  121  A    between atoms: _296  and  _297
REMARK  122  A    between atoms: _296  and  _299
REMARK  123  A    between atoms: _299  and  _300
REMARK  124  A    between atoms: _303  and  _305
REMARK  125  A    between atoms: _305  and  _306
REMARK  126  A    between atoms: _305  and  _308
REMARK  127  A    between atoms: _308  and  _309
REMARK  128  A    between atoms: _312  and  _314
REMARK  129  A    between atoms: _314  and  _315
REMARK  130  A    between atoms: _314  and  _317
REMARK  131  A    between atoms: _317  and  _318
REMARK  132  A    between atoms: _321  and  _323
REMARK  133  A    between atoms: _323  and  _324
REMARK  134  A    between atoms: _326  and  _328
REMARK  135  A    between atoms: _328  and  _329
REMARK  136  A    between atoms: _332  and  _334
REMARK  137  A    between atoms: _334  and  _335
REMARK  138  A    between atoms: _334  and  _337
REMARK  139  A    between atoms: _337  and  _338
REMARK  140  A    between atoms: _341  and  _343
REMARK  141  A    between atoms: _343  and  _344
REMARK  142  A    between atoms: _343  and  _346
REMARK  143  A    between atoms: _346  and  _347
REMARK  144  A    between atoms: _350  and  _352
REMARK  145  A    between atoms: _352  and  _353
REMARK  146  A    between atoms: _352  and  _355
REMARK  147  A    between atoms: _355  and  _356
REMARK  148  A    between atoms: _359  and  _361
REMARK  149  A    between atoms: _361  and  _362
REMARK  150  A    between atoms: _361  and  _364
REMARK  151  A    between atoms: _364  and  _365
REMARK  152  A    between atoms: _368  and  _370
REMARK  153  A    between atoms: _370  and  _371
REMARK  154  A    between atoms: _370  and  _373
REMARK  155  A    between atoms: _373  and  _374
REMARK  156  A    between atoms: _374  and  _375
REMARK  157  A    between atoms: _375  and  _376
REMARK  158  A    between atoms: _376  and  _377
REMARK  159  A    between atoms: _381  and  _383
REMARK  160  A    between atoms: _383  and  _384
REMARK  161  A    between atoms: _383  and  _386
REMARK  162  A    between atoms: _386  and  _387
REMARK  163  A    between atoms: _387  and  _388
REMARK  164  A    between atoms: _390  and  _392
REMARK  165  A    between atoms: _392  and  _393
REMARK  166  A    between atoms: _392  and  _395
REMARK  167  A    between atoms: _395  and  _396
REMARK  168  A    between atoms: _399  and  _401
REMARK  169  A    between atoms: _401  and  _402
REMARK  170  A    between atoms: _404  and  _406
REMARK  171  A    between atoms: _406  and  _407
REMARK  172  A    between atoms: _409  and  _411
REMARK  173  A    between atoms: _411  and  _412
REMARK  174  A    between atoms: _411  and  _414
REMARK  175  A    between atoms: _414  and  _415
REMARK  176  A    between atoms: _418  and  _420
REMARK  177  A    between atoms: _420  and  _421
REMARK  178  A    between atoms: _423  and  _425
REMARK  179  A    between atoms: _425  and  _426
REMARK  180  A    between atoms: _428  and  _430
REMARK  181  A    between atoms: _430  and  _431
REMARK  182  A    between atoms: _430  and  _433
REMARK  183  A    between atoms: _433  and  _434
REMARK  184  A    between atoms: _437  and  _439
REMARK  185  A    between atoms: _439  and  _440
REMARK  186  A    between atoms: _439  and  _442
REMARK  187  A    between atoms: _445  and  _447
REMARK  188  A    between atoms: _447  and  _448
REMARK  189  A    between atoms: _447  and  _450
REMARK  190  A    between atoms: _450  and  _451
REMARK  191  A    between atoms: _455  and  _456
REMARK  192  A    between atoms: _461  and  _463
REMARK  193  A    between atoms: _463  and  _464
REMARK  194  A    between atoms: _463  and  _466
REMARK  195  A    between atoms: _466  and  _467
REMARK  196  A    between atoms: _471  and  _472
REMARK  197  A    between atoms: _477  and  _479
REMARK  198  A    between atoms: _479  and  _480
REMARK  199  A    between atoms: _479  and  _482
REMARK  200  A    between atoms: _482  and  _483
REMARK  201  A    between atoms: _486  and  _488
REMARK  202  A    between atoms: _488  and  _489
REMARK  203  A    between atoms: _488  and  _491
REMARK  204  A    between atoms: _491  and  _492
REMARK  205  A    between atoms: _497  and  _499
REMARK  206  A    between atoms: _499  and  _500
REMARK  207  A    between atoms: _499  and  _502
REMARK  208  A    between atoms: _505  and  _507
REMARK  209  A    between atoms: _507  and  _508
REMARK  210  A    between atoms: _507  and  _510
REMARK  211  A    between atoms: _510  and  _511
REMARK  212  A    between atoms: _514  and  _516
REMARK  213  A    between atoms: _516  and  _517
REMARK  214  A    between atoms: _519  and  _521
REMARK  215  A    between atoms: _521  and  _522
REMARK  216  A    between atoms: _521  and  _524
REMARK  217  A    between atoms: _524  and  _525
REMARK  218  A    between atoms: _525  and  _526
REMARK  219  A    between atoms: _526  and  _527
REMARK                            x       y       z     vdW  Elec       q    Type
REMARK                         _______ _______ _______ _____ _____    ______ ____
ROOT
ATOM      1  O   HOH     1     -13.495  10.367  32.946  0.00  0.00    +0.000 OA
ENDROOT
TORSDOF 0
REMARK  Name = ../refined-set-2016/3u7s/3u7s_pocket.pdb
REMARK  219 active torsions:
REMARK  status: ('A' for Active; 'I' for Inactive)
REMARK    1  A    between atoms: _1  and  _3
REMARK    2  A    between atoms: _3  and  _4
REMARK    3  A    between atoms: _3  and  _6
REMARK    4  A    between atoms: _6  and  _7
REMARK    5  A    between atoms: _7  and  _8
REMARK    6  A    between atoms: _8  and  _9
REMARK    7  A    between atoms: _18  and  _20
REMARK    8  A    between atoms: _20  and  _21
REMARK    9  A    between atoms: _20  and  _23
REMARK   10  A    between atoms: _23  and  _24
REMARK   11  A    between atoms: _27  and  _29
REMARK   12  A    between atoms: _29  and  _30
REMARK   13  A    between atoms: _29  and  _32
REMARK   14  A    between atoms: _32  and  _33
REMARK   15  A    between atoms: _36  and  _38
REMARK   16  A    between atoms: _38  and  _39
REMARK   17  A    between atoms: _38  and  _41
REMARK   18  A    between atoms: _41  and  _42
REMARK   19  A    between atoms: _45  and  _47
REMARK   20  A    between atoms: _47  and  _48
REMARK   21  A    between atoms: _47  and  _50
REMARK   22  A    between atoms: _50  and  _51
REMARK   23  A    between atoms: _54  and  _56
REMARK   24  A    between atoms: _56  and  _57
REMARK   25  A    between atoms: _59  and  _61
REMARK   26  A    between atoms: _61  and  _62
REMARK   27  A    between atoms: _65  and  _67
REMARK   28  A    between atoms: _67  and  _68
REMARK   29  A    between atoms: _67  and  _70
REMARK   30  A    between atoms: _70  and  _71
REMARK   31  A    between atoms: _74  and  _76
REMARK   32  A    between atoms: _76  and  _77
REMARK   33  A    between atoms: _76  and  _79
REMARK   34  A    between atoms: _79  and  _80
REMARK   35  A    between atoms: _83  and  _85
REMARK   36  A    between atoms: _85  and  _86
REMARK   37  A    between atoms: _85  and  _88
REMARK   38  A    between atoms: _88  and  _89
REMARK   39  A    between atoms: _92  and  _94
REMARK   40  A    between atoms: _94  and  _95
REMARK   41  A    between atoms: _94  and  _97
REMARK   42  A    between atoms: _97  and  _98
REMARK   43  A    between atoms: _101  and  _103
REMARK   44  A    between atoms: _103  and  _104
REMARK   45  A    between atoms: _103  and  _106
REMARK   46  A    between atoms: _106  and  _107
REMARK   47  A    between atoms: _107  and  _108
REMARK   48  A    between atoms: _108  and  _109
REMARK   49  A    between atoms: _109  and  _110
REMARK   50  A    between atoms: _114  and  _116
REMARK   51  A    between atoms: _116  and  _117
REMARK   52  A    between atoms: _116  and  _119
REMARK   53  A    between atoms: _119  and  _120
REMARK   54  A    between atoms: _120  and  _121
REMARK   55  A    between atoms: _125  and  _126
REMARK   56  A    between atoms: _125  and  _128
REMARK   57  A    between atoms: _128  and  _129
REMARK   58  A    between atoms: _132  and  _134
REMARK   59  A    between atoms: _134  and  _135
REMARK   60  A    between atoms: _137  and  _139
REMARK   61  A    between atoms: _139  and  _140
REMARK   62  A    between atoms: _142  and  _144
REMARK   63  A    between atoms: _144  and  _145
REMARK   64  A    between atoms: _144  and  _147
REMARK   65  A    between atoms: _147  and  _148
REMARK   66  A    between atoms: _151  and  _153
REMARK   67  A    between atoms: _153  and  _154
REMARK   68  A    between atoms: _156  and  _158
REMARK   69  A    between atoms: _158  and  _159
REMARK   70  A    between atoms: _161  and  _163
REMARK   71  A    between atoms: _163  and  _164
REMARK   72  A    between atoms: _163  and  _166
REMARK   73  A    between atoms: _166  and  _167
REMARK   74  A    between atoms: _173  and  _175
REMARK   75  A    between atoms: _175  and  _176
REMARK   76  A    between atoms: _175  and  _178
REMARK   77  A    between atoms: _178  and  _179
REMARK   78  A    between atoms: _182  and  _184
REMARK   79  A    between atoms: _184  and  _185
REMARK   80  A    between atoms: _184  and  _187
REMARK   81  A    between atoms: _187  and  _188
REMARK   82  A    between atoms: _192  and  _193
REMARK   83  A    between atoms: _198  and  _200
REMARK   84  A    between atoms: _200  and  _201
REMARK   85  A    between atoms: _200  and  _203
REMARK   86  A    between atoms: _203  and  _204
REMARK   87  A    between atoms: _207  and  _209
REMARK   88  A    between atoms: _209  and  _210
REMARK   89  A    between atoms: _209  and  _212
REMARK   90  A    between atoms: _212  and  _213
REMARK   91  A    between atoms: _218  and  _220
REMARK   92  A    between atoms: _220  and  _221
REMARK   93  A    between atoms: _220  and  _223
REMARK   94  A    between atoms: _226  and  _228
REMARK   95  A    between atoms: _228  and  _229
REMARK   96  A    between atoms: _228  and  _231
REMARK   97  A    between atoms: _231  and  _232
REMARK   98  A    between atoms: _235  and  _237
REMARK   99  A    between atoms: _237  and  _238
REMARK  100  A    between atoms: _240  and  _242
REMARK  101  A    between atoms: _242  and  _243
REMARK  102  A    between atoms: _242  and  _245
REMARK  103  A    between atoms: _245  and  _246
REMARK  104  A    between atoms: _246  and  _247
REMARK  105  A    between atoms: _247  and  _248
REMARK  106  A    between atoms: _257  and  _259
REMARK  107  A    between atoms: _259  and  _260
REMARK  108  A    between atoms: _259  and  _262
REMARK  109  A    between atoms: _262  and  _263
REMARK  110  A    between atoms: _268  and  _270
REMARK  111  A    between atoms: _270  and  _271
REMARK  112  A    between atoms: _270  and  _273
REMARK  113  A    between atoms: _273  and  _274
REMARK  114  A    between atoms: _274  and  _275
REMARK  115  A    between atoms: _275  and  _276
REMARK  116  A    between atoms: _285  and  _287
REMARK  117  A    between atoms: _287  and  _288
REMARK  118  A    between atoms: _287  and  _290
REMARK  119  A    between atoms: _290  and  _291
REMARK  120  A    between atoms: _294  and  _296
REMARK  121  A    between atoms: _296  and  _297
REMARK  122  A    between atoms: _296  and  _299
REMARK  123  A    between atoms: _299  and  _300
REMARK  124  A    between atoms: _303  and  _305
REMARK  125  A    between atoms: _305  and  _306
REMARK  126  A    between atoms: _305  and  _308
REMARK  127  A    between atoms: _308  and  _309
REMARK  128  A    between atoms: _312  and  _314
REMARK  129  A    between atoms: _314  and  _315
REMARK  130  A    between atoms: _314  and  _317
REMARK  131  A    between atoms: _317  and  _318
REMARK  132  A    between atoms: _321  and  _323
REMARK  133  A    between atoms: _323  and  _324
REMARK  134  A    between atoms: _326  and  _328
REMARK  135  A    between atoms: _328  and  _329
REMARK  136  A    between atoms: _332  and  _334
REMARK  137  A    between atoms: _334  and  _335
REMARK  138  A    between atoms: _334  and  _337
REMARK  139  A    between atoms: _337  and  _338
REMARK  140  A    between atoms: _341  and  _343
REMARK  141  A    between atoms: _343  and  _344
REMARK  142  A    between atoms: _343  and  _346
REMARK  143  A    between atoms: _346  and  _347
REMARK  144  A    between atoms: _350  and  _352
REMARK  145  A    between atoms: _352  and  _353
REMARK  146  A    between atoms: _352  and  _355
REMARK  147  A    between atoms: _355  and  _356
REMARK  148  A    between atoms: _359  and  _361
REMARK  149  A    between atoms: _361  and  _362
REMARK  150  A    between atoms: _361  and  _364
REMARK  151  A    between atoms: _364  and  _365
REMARK  152  A    between atoms: _368  and  _370
REMARK  153  A    between atoms: _370  and  _371
REMARK  154  A    between atoms: _370  and  _373
REMARK  155  A    between atoms: _373  and  _374
REMARK  156  A    between atoms: _374  and  _375
REMARK  157  A    between atoms: _375  and  _376
REMARK  158  A    between atoms: _376  and  _377
REMARK  159  A    between atoms: _381  and  _383
REMARK  160  A    between atoms: _383  and  _384
REMARK  161  A    between atoms: _383  and  _386
REMARK  162  A    between atoms: _386  and  _387
REMARK  163  A    between atoms: _387  and  _388
REMARK  164  A    between atoms: _390  and  _392
REMARK  165  A    between atoms: _392  and  _393
REMARK  166  A    between atoms: _392  and  _395
REMARK  167  A    between atoms: _395  and  _396
REMARK  168  A    between atoms: _399  and  _401
REMARK  169  A    between atoms: _401  and  _402
REMARK  170  A    between atoms: _404  and  _406
REMARK  171  A    between atoms: _406  and  _407
REMARK  172  A    between atoms: _409  and  _411
REMARK  173  A    between atoms: _411  and  _412
REMARK  174  A    between atoms: _411  and  _414
REMARK  175  A    between atoms: _414  and  _415
REMARK  176  A    between atoms: _418  and  _420
REMARK  177  A    between atoms: _420  and  _421
REMARK  178  A    between atoms: _423  and  _425
REMARK  179  A    between atoms: _425  and  _426
REMARK  180  A    between atoms: _428  and  _430
REMARK  181  A    between atoms: _430  and  _431
REMARK  182  A    between atoms: _430  and  _433
REMARK  183  A    between atoms: _433  and  _434
REMARK  184  A    between atoms: _437  and  _439
REMARK  185  A    between atoms: _439  and  _440
REMARK  186  A    between atoms: _439  and  _442
REMARK  187  A    between atoms: _445  and  _447
REMARK  188  A    between atoms: _447  and  _448
REMARK  189  A    between atoms: _447  and  _450
REMARK  190  A    between atoms: _450  and  _451
REMARK  191  A    between atoms: _455  and  _456
REMARK  192  A    between atoms: _461  and  _463
REMARK  193  A    between atoms: _463  and  _464
REMARK  194  A    between atoms: _463  and  _466
REMARK  195  A    between atoms: _466  and  _467
REMARK  196  A    between atoms: _471  and  _472
REMARK  197  A    between atoms: _477  and  _479
REMARK  198  A    between atoms: _479  and  _480
REMARK  199  A    between atoms: _479  and  _482
REMARK  200  A    between atoms: _482  and  _483
REMARK  201  A    between atoms: _486  and  _488
REMARK  202  A    between atoms: _488  and  _489
REMARK  203  A    between atoms: _488  and  _491
REMARK  204  A    between atoms: _491  and  _492
REMARK  205  A    between atoms: _497  and  _499
REMARK  206  A    between atoms: _499  and  _500
REMARK  207  A    between atoms: _499  and  _502
REMARK  208  A    between atoms: _505  and  _507
REMARK  209  A    between atoms: _507  and  _508
REMARK  210  A    between atoms: _507  and  _510
REMARK  211  A    between atoms: _510  and  _511
REMARK  212  A    between atoms: _514  and  _516
REMARK  213  A    between atoms: _516  and  _517
REMARK  214  A    between atoms: _519  and  _521
REMARK  215  A    between atoms: _521  and  _522
REMARK  216  A    between atoms: _521  and  _524
REMARK  217  A    between atoms: _524  and  _525
REMARK  218  A    between atoms: _525  and  _526
REMARK  219  A    between atoms: _526  and  _527
REMARK                            x       y       z     vdW  Elec       q    Type
REMARK                         _______ _______ _______ _____ _____    ______ ____
ROOT
ATOM      1  O   HOH     1      -1.983  19.315  22.053  0.00  0.00    +0.000 OA
ENDROOT
TORSDOF 0
REMARK  Name = ../refined-set-2016/3u7s/3u7s_pocket.pdb
REMARK  219 active torsions:
REMARK  status: ('A' for Active; 'I' for Inactive)
REMARK    1  A    between atoms: _1  and  _3
REMARK    2  A    between atoms: _3  and  _4
REMARK    3  A    between atoms: _3  and  _6
REMARK    4  A    between atoms: _6  and  _7
REMARK    5  A    between atoms: _7  and  _8
REMARK    6  A    between atoms: _8  and  _9
REMARK    7  A    between atoms: _18  and  _20
REMARK    8  A    between atoms: _20  and  _21
REMARK    9  A    between atoms: _20  and  _23
REMARK   10  A    between atoms: _23  and  _24
REMARK   11  A    between atoms: _27  and  _29
REMARK   12  A    between atoms: _29  and  _30
REMARK   13  A    between atoms: _29  and  _32
REMARK   14  A    between atoms: _32  and  _33
REMARK   15  A    between atoms: _36  and  _38
REMARK   16  A    between atoms: _38  and  _39
REMARK   17  A    between atoms: _38  and  _41
REMARK   18  A    between atoms: _41  and  _42
REMARK   19  A    between atoms: _45  and  _47
REMARK   20  A    between atoms: _47  and  _48
REMARK   21  A    between atoms: _47  and  _50
REMARK   22  A    between atoms: _50  and  _51
REMARK   23  A    between atoms: _54  and  _56
REMARK   24  A    between atoms: _56  and  _57
REMARK   25  A    between atoms: _59  and  _61
REMARK   26  A    between atoms: _61  and  _62
REMARK   27  A    between atoms: _65  and  _67
REMARK   28  A    between atoms: _67  and  _68
REMARK   29  A    between atoms: _67  and  _70
REMARK   30  A    between atoms: _70  and  _71
REMARK   31  A    between atoms: _74  and  _76
REMARK   32  A    between atoms: _76  and  _77
REMARK   33  A    between atoms: _76  and  _79
REMARK   34  A    between atoms: _79  and  _80
REMARK   35  A    between atoms: _83  and  _85
REMARK   36  A    between atoms: _85  and  _86
REMARK   37  A    between atoms: _85  and  _88
REMARK   38  A    between atoms: _88  and  _89
REMARK   39  A    between atoms: _92  and  _94
REMARK   40  A    between atoms: _94  and  _95
REMARK   41  A    between atoms: _94  and  _97
REMARK   42  A    between atoms: _97  and  _98
REMARK   43  A    between atoms: _101  and  _103
REMARK   44  A    between atoms: _103  and  _104
REMARK   45  A    between atoms: _103  and  _106
REMARK   46  A    between atoms: _106  and  _107
REMARK   47  A    between atoms: _107  and  _108
REMARK   48  A    between atoms: _108  and  _109
REMARK   49  A    between atoms: _109  and  _110
REMARK   50  A    between atoms: _114  and  _116
REMARK   51  A    between atoms: _116  and  _117
REMARK   52  A    between atoms: _116  and  _119
REMARK   53  A    between atoms: _119  and  _120
REMARK   54  A    between atoms: _120  and  _121
REMARK   55  A    between atoms: _125  and  _126
REMARK   56  A    between atoms: _125  and  _128
REMARK   57  A    between atoms: _128  and  _129
REMARK   58  A    between atoms: _132  and  _134
REMARK   59  A    between atoms: _134  and  _135
REMARK   60  A    between atoms: _137  and  _139
REMARK   61  A    between atoms: _139  and  _140
REMARK   62  A    between atoms: _142  and  _144
REMARK   63  A    between atoms: _144  and  _145
REMARK   64  A    between atoms: _144  and  _147
REMARK   65  A    between atoms: _147  and  _148
REMARK   66  A    between atoms: _151  and  _153
REMARK   67  A    between atoms: _153  and  _154
REMARK   68  A    between atoms: _156  and  _158
REMARK   69  A    between atoms: _158  and  _159
REMARK   70  A    between atoms: _161  and  _163
REMARK   71  A    between atoms: _163  and  _164
REMARK   72  A    between atoms: _163  and  _166
REMARK   73  A    between atoms: _166  and  _167
REMARK   74  A    between atoms: _173  and  _175
REMARK   75  A    between atoms: _175  and  _176
REMARK   76  A    between atoms: _175  and  _178
REMARK   77  A    between atoms: _178  and  _179
REMARK   78  A    between atoms: _182  and  _184
REMARK   79  A    between atoms: _184  and  _185
REMARK   80  A    between atoms: _184  and  _187
REMARK   81  A    between atoms: _187  and  _188
REMARK   82  A    between atoms: _192  and  _193
REMARK   83  A    between atoms: _198  and  _200
REMARK   84  A    between atoms: _200  and  _201
REMARK   85  A    between atoms: _200  and  _203
REMARK   86  A    between atoms: _203  and  _204
REMARK   87  A    between atoms: _207  and  _209
REMARK   88  A    between atoms: _209  and  _210
REMARK   89  A    between atoms: _209  and  _212
REMARK   90  A    between atoms: _212  and  _213
REMARK   91  A    between atoms: _218  and  _220
REMARK   92  A    between atoms: _220  and  _221
REMARK   93  A    between atoms: _220  and  _223
REMARK   94  A    between atoms: _226  and  _228
REMARK   95  A    between atoms: _228  and  _229
REMARK   96  A    between atoms: _228  and  _231
REMARK   97  A    between atoms: _231  and  _232
REMARK   98  A    between atoms: _235  and  _237
REMARK   99  A    between atoms: _237  and  _238
REMARK  100  A    between atoms: _240  and  _242
REMARK  101  A    between atoms: _242  and  _243
REMARK  102  A    between atoms: _242  and  _245
REMARK  103  A    between atoms: _245  and  _246
REMARK  104  A    between atoms: _246  and  _247
REMARK  105  A    between atoms: _247  and  _248
REMARK  106  A    between atoms: _257  and  _259
REMARK  107  A    between atoms: _259  and  _260
REMARK  108  A    between atoms: _259  and  _262
REMARK  109  A    between atoms: _262  and  _263
REMARK  110  A    between atoms: _268  and  _270
REMARK  111  A    between atoms: _270  and  _271
REMARK  112  A    between atoms: _270  and  _273
REMARK  113  A    between atoms: _273  and  _274
REMARK  114  A    between atoms: _274  and  _275
REMARK  115  A    between atoms: _275  and  _276
REMARK  116  A    between atoms: _285  and  _287
REMARK  117  A    between atoms: _287  and  _288
REMARK  118  A    between atoms: _287  and  _290
REMARK  119  A    between atoms: _290  and  _291
REMARK  120  A    between atoms: _294  and  _296
REMARK  121  A    between atoms: _296  and  _297
REMARK  122  A    between atoms: _296  and  _299
REMARK  123  A    between atoms: _299  and  _300
REMARK  124  A    between atoms: _303  and  _305
REMARK  125  A    between atoms: _305  and  _306
REMARK  126  A    between atoms: _305  and  _308
REMARK  127  A    between atoms: _308  and  _309
REMARK  128  A    between atoms: _312  and  _314
REMARK  129  A    between atoms: _314  and  _315
REMARK  130  A    between atoms: _314  and  _317
REMARK  131  A    between atoms: _317  and  _318
REMARK  132  A    between atoms: _321  and  _323
REMARK  133  A    between atoms: _323  and  _324
REMARK  134  A    between atoms: _326  and  _328
REMARK  135  A    between atoms: _328  and  _329
REMARK  136  A    between atoms: _332  and  _334
REMARK  137  A    between atoms: _334  and  _335
REMARK  138  A    between atoms: _334  and  _337
REMARK  139  A    between atoms: _337  and  _338
REMARK  140  A    between atoms: _341  and  _343
REMARK  141  A    between atoms: _343  and  _344
REMARK  142  A    between atoms: _343  and  _346
REMARK  143  A    between atoms: _346  and  _347
REMARK  144  A    between atoms: _350  and  _352
REMARK  145  A    between atoms: _352  and  _353
REMARK  146  A    between atoms: _352  and  _355
REMARK  147  A    between atoms: _355  and  _356
REMARK  148  A    between atoms: _359  and  _361
REMARK  149  A    between atoms: _361  and  _362
REMARK  150  A    between atoms: _361  and  _364
REMARK  151  A    between atoms: _364  and  _365
REMARK  152  A    between atoms: _368  and  _370
REMARK  153  A    between atoms: _370  and  _371
REMARK  154  A    between atoms: _370  and  _373
REMARK  155  A    between atoms: _373  and  _374
REMARK  156  A    between atoms: _374  and  _375
REMARK  157  A    between atoms: _375  and  _376
REMARK  158  A    between atoms: _376  and  _377
REMARK  159  A    between atoms: _381  and  _383
REMARK  160  A    between atoms: _383  and  _384
REMARK  161  A    between atoms: _383  and  _386
REMARK  162  A    between atoms: _386  and  _387
REMARK  163  A    between atoms: _387  and  _388
REMARK  164  A    between atoms: _390  and  _392
REMARK  165  A    between atoms: _392  and  _393
REMARK  166  A    between atoms: _392  and  _395
REMARK  167  A    between atoms: _395  and  _396
REMARK  168  A    between atoms: _399  and  _401
REMARK  169  A    between atoms: _401  and  _402
REMARK  170  A    between atoms: _404  and  _406
REMARK  171  A    between atoms: _406  and  _407
REMARK  172  A    between atoms: _409  and  _411
REMARK  173  A    between atoms: _411  and  _412
REMARK  174  A    between atoms: _411  and  _414
REMARK  175  A    between atoms: _414  and  _415
REMARK  176  A    between atoms: _418  and  _420
REMARK  177  A    between atoms: _420  and  _421
REMARK  178  A    between atoms: _423  and  _425
REMARK  179  A    between atoms: _425  and  _426
REMARK  180  A    between atoms: _428  and  _430
REMARK  181  A    between atoms: _430  and  _431
REMARK  182  A    between atoms: _430  and  _433
REMARK  183  A    between atoms: _433  and  _434
REMARK  184  A    between atoms: _437  and  _439
REMARK  185  A    between atoms: _439  and  _440
REMARK  186  A    between atoms: _439  and  _442
REMARK  187  A    between atoms: _445  and  _447
REMARK  188  A    between atoms: _447  and  _448
REMARK  189  A    between atoms: _447  and  _450
REMARK  190  A    between atoms: _450  and  _451
REMARK  191  A    between atoms: _455  and  _456
REMARK  192  A    between atoms: _461  and  _463
REMARK  193  A    between atoms: _463  and  _464
REMARK  194  A    between atoms: _463  and  _466
REMARK  195  A    between atoms: _466  and  _467
REMARK  196  A    between atoms: _471  and  _472
REMARK  197  A    between atoms: _477  and  _479
REMARK  198  A    between atoms: _479  and  _480
REMARK  199  A    between atoms: _479  and  _482
REMARK  200  A    between atoms: _482  and  _483
REMARK  201  A    between atoms: _486  and  _488
REMARK  202  A    between atoms: _488  and  _489
REMARK  203  A    between atoms: _488  and  _491
REMARK  204  A    between atoms: _491  and  _492
REMARK  205  A    between atoms: _497  and  _499
REMARK  206  A    between atoms: _499  and  _500
REMARK  207  A    between atoms: _499  and  _502
REMARK  208  A    between atoms: _505  and  _507
REMARK  209  A    between atoms: _507  and  _508
REMARK  210  A    between atoms: _507  and  _510
REMARK  211  A    between atoms: _510  and  _511
REMARK  212  A    between atoms: _514  and  _516
REMARK  213  A    between atoms: _516  and  _517
REMARK  214  A    between atoms: _519  and  _521
REMARK  215  A    between atoms: _521  and  _522
REMARK  216  A    between atoms: _521  and  _524
REMARK  217  A    between atoms: _524  and  _525
REMARK  218  A    between atoms: _525  and  _526
REMARK  219  A    between atoms: _526  and  _527
REMARK                            x       y       z     vdW  Elec       q    Type
REMARK                         _______ _______ _______ _____ _____    ______ ____
ROOT
ATOM      1  O   HOH     1      -2.762  19.511  18.024  0.00  0.00    +0.000 OA
ENDROOT
TORSDOF 0
REMARK  Name = ../refined-set-2016/3u7s/3u7s_pocket.pdb
REMARK  219 active torsions:
REMARK  status: ('A' for Active; 'I' for Inactive)
REMARK    1  A    between atoms: _1  and  _3
REMARK    2  A    between atoms: _3  and  _4
REMARK    3  A    between atoms: _3  and  _6
REMARK    4  A    between atoms: _6  and  _7
REMARK    5  A    between atoms: _7  and  _8
REMARK    6  A    between atoms: _8  and  _9
REMARK    7  A    between atoms: _18  and  _20
REMARK    8  A    between atoms: _20  and  _21
REMARK    9  A    between atoms: _20  and  _23
REMARK   10  A    between atoms: _23  and  _24
REMARK   11  A    between atoms: _27  and  _29
REMARK   12  A    between atoms: _29  and  _30
REMARK   13  A    between atoms: _29  and  _32
REMARK   14  A    between atoms: _32  and  _33
REMARK   15  A    between atoms: _36  and  _38
REMARK   16  A    between atoms: _38  and  _39
REMARK   17  A    between atoms: _38  and  _41
REMARK   18  A    between atoms: _41  and  _42
REMARK   19  A    between atoms: _45  and  _47
REMARK   20  A    between atoms: _47  and  _48
REMARK   21  A    between atoms: _47  and  _50
REMARK   22  A    between atoms: _50  and  _51
REMARK   23  A    between atoms: _54  and  _56
REMARK   24  A    between atoms: _56  and  _57
REMARK   25  A    between atoms: _59  and  _61
REMARK   26  A    between atoms: _61  and  _62
REMARK   27  A    between atoms: _65  and  _67
REMARK   28  A    between atoms: _67  and  _68
REMARK   29  A    between atoms: _67  and  _70
REMARK   30  A    between atoms: _70  and  _71
REMARK   31  A    between atoms: _74  and  _76
REMARK   32  A    between atoms: _76  and  _77
REMARK   33  A    between atoms: _76  and  _79
REMARK   34  A    between atoms: _79  and  _80
REMARK   35  A    between atoms: _83  and  _85
REMARK   36  A    between atoms: _85  and  _86
REMARK   37  A    between atoms: _85  and  _88
REMARK   38  A    between atoms: _88  and  _89
REMARK   39  A    between atoms: _92  and  _94
REMARK   40  A    between atoms: _94  and  _95
REMARK   41  A    between atoms: _94  and  _97
REMARK   42  A    between atoms: _97  and  _98
REMARK   43  A    between atoms: _101  and  _103
REMARK   44  A    between atoms: _103  and  _104
REMARK   45  A    between atoms: _103  and  _106
REMARK   46  A    between atoms: _106  and  _107
REMARK   47  A    between atoms: _107  and  _108
REMARK   48  A    between atoms: _108  and  _109
REMARK   49  A    between atoms: _109  and  _110
REMARK   50  A    between atoms: _114  and  _116
REMARK   51  A    between atoms: _116  and  _117
REMARK   52  A    between atoms: _116  and  _119
REMARK   53  A    between atoms: _119  and  _120
REMARK   54  A    between atoms: _120  and  _121
REMARK   55  A    between atoms: _125  and  _126
REMARK   56  A    between atoms: _125  and  _128
REMARK   57  A    between atoms: _128  and  _129
REMARK   58  A    between atoms: _132  and  _134
REMARK   59  A    between atoms: _134  and  _135
REMARK   60  A    between atoms: _137  and  _139
REMARK   61  A    between atoms: _139  and  _140
REMARK   62  A    between atoms: _142  and  _144
REMARK   63  A    between atoms: _144  and  _145
REMARK   64  A    between atoms: _144  and  _147
REMARK   65  A    between atoms: _147  and  _148
REMARK   66  A    between atoms: _151  and  _153
REMARK   67  A    between atoms: _153  and  _154
REMARK   68  A    between atoms: _156  and  _158
REMARK   69  A    between atoms: _158  and  _159
REMARK   70  A    between atoms: _161  and  _163
REMARK   71  A    between atoms: _163  and  _164
REMARK   72  A    between atoms: _163  and  _166
REMARK   73  A    between atoms: _166  and  _167
REMARK   74  A    between atoms: _173  and  _175
REMARK   75  A    between atoms: _175  and  _176
REMARK   76  A    between atoms: _175  and  _178
REMARK   77  A    between atoms: _178  and  _179
REMARK   78  A    between atoms: _182  and  _184
REMARK   79  A    between atoms: _184  and  _185
REMARK   80  A    between atoms: _184  and  _187
REMARK   81  A    between atoms: _187  and  _188
REMARK   82  A    between atoms: _192  and  _193
REMARK   83  A    between atoms: _198  and  _200
REMARK   84  A    between atoms: _200  and  _201
REMARK   85  A    between atoms: _200  and  _203
REMARK   86  A    between atoms: _203  and  _204
REMARK   87  A    between atoms: _207  and  _209
REMARK   88  A    between atoms: _209  and  _210
REMARK   89  A    between atoms: _209  and  _212
REMARK   90  A    between atoms: _212  and  _213
REMARK   91  A    between atoms: _218  and  _220
REMARK   92  A    between atoms: _220  and  _221
REMARK   93  A    between atoms: _220  and  _223
REMARK   94  A    between atoms: _226  and  _228
REMARK   95  A    between atoms: _228  and  _229
REMARK   96  A    between atoms: _228  and  _231
REMARK   97  A    between atoms: _231  and  _232
REMARK   98  A    between atoms: _235  and  _237
REMARK   99  A    between atoms: _237  and  _238
REMARK  100  A    between atoms: _240  and  _242
REMARK  101  A    between atoms: _242  and  _243
REMARK  102  A    between atoms: _242  and  _245
REMARK  103  A    between atoms: _245  and  _246
REMARK  104  A    between atoms: _246  and  _247
REMARK  105  A    between atoms: _247  and  _248
REMARK  106  A    between atoms: _257  and  _259
REMARK  107  A    between atoms: _259  and  _260
REMARK  108  A    between atoms: _259  and  _262
REMARK  109  A    between atoms: _262  and  _263
REMARK  110  A    between atoms: _268  and  _270
REMARK  111  A    between atoms: _270  and  _271
REMARK  112  A    between atoms: _270  and  _273
REMARK  113  A    between atoms: _273  and  _274
REMARK  114  A    between atoms: _274  and  _275
REMARK  115  A    between atoms: _275  and  _276
REMARK  116  A    between atoms: _285  and  _287
REMARK  117  A    between atoms: _287  and  _288
REMARK  118  A    between atoms: _287  and  _290
REMARK  119  A    between atoms: _290  and  _291
REMARK  120  A    between atoms: _294  and  _296
REMARK  121  A    between atoms: _296  and  _297
REMARK  122  A    between atoms: _296  and  _299
REMARK  123  A    between atoms: _299  and  _300
REMARK  124  A    between atoms: _303  and  _305
REMARK  125  A    between atoms: _305  and  _306
REMARK  126  A    between atoms: _305  and  _308
REMARK  127  A    between atoms: _308  and  _309
REMARK  128  A    between atoms: _312  and  _314
REMARK  129  A    between atoms: _314  and  _315
REMARK  130  A    between atoms: _314  and  _317
REMARK  131  A    between atoms: _317  and  _318
REMARK  132  A    between atoms: _321  and  _323
REMARK  133  A    between atoms: _323  and  _324
REMARK  134  A    between atoms: _326  and  _328
REMARK  135  A    between atoms: _328  and  _329
REMARK  136  A    between atoms: _332  and  _334
REMARK  137  A    between atoms: _334  and  _335
REMARK  138  A    between atoms: _334  and  _337
REMARK  139  A    between atoms: _337  and  _338
REMARK  140  A    between atoms: _341  and  _343
REMARK  141  A    between atoms: _343  and  _344
REMARK  142  A    between atoms: _343  and  _346
REMARK  143  A    between atoms: _346  and  _347
REMARK  144  A    between atoms: _350  and  _352
REMARK  145  A    between atoms: _352  and  _353
REMARK  146  A    between atoms: _352  and  _355
REMARK  147  A    between atoms: _355  and  _356
REMARK  148  A    between atoms: _359  and  _361
REMARK  149  A    between atoms: _361  and  _362
REMARK  150  A    between atoms: _361  and  _364
REMARK  151  A    between atoms: _364  and  _365
REMARK  152  A    between atoms: _368  and  _370
REMARK  153  A    between atoms: _370  and  _371
REMARK  154  A    between atoms: _370  and  _373
REMARK  155  A    between atoms: _373  and  _374
REMARK  156  A    between atoms: _374  and  _375
REMARK  157  A    between atoms: _375  and  _376
REMARK  158  A    between atoms: _376  and  _377
REMARK  159  A    between atoms: _381  and  _383
REMARK  160  A    between atoms: _383  and  _384
REMARK  161  A    between atoms: _383  and  _386
REMARK  162  A    between atoms: _386  and  _387
REMARK  163  A    between atoms: _387  and  _388
REMARK  164  A    between atoms: _390  and  _392
REMARK  165  A    between atoms: _392  and  _393
REMARK  166  A    between atoms: _392  and  _395
REMARK  167  A    between atoms: _395  and  _396
REMARK  168  A    between atoms: _399  and  _401
REMARK  169  A    between atoms: _401  and  _402
REMARK  170  A    between atoms: _404  and  _406
REMARK  171  A    between atoms: _406  and  _407
REMARK  172  A    between atoms: _409  and  _411
REMARK  173  A    between atoms: _411  and  _412
REMARK  174  A    between atoms: _411  and  _414
REMARK  175  A    between atoms: _414  and  _415
REMARK  176  A    between atoms: _418  and  _420
REMARK  177  A    between atoms: _420  and  _421
REMARK  178  A    between atoms: _423  and  _425
REMARK  179  A    between atoms: _425  and  _426
REMARK  180  A    between atoms: _428  and  _430
REMARK  181  A    between atoms: _430  and  _431
REMARK  182  A    between atoms: _430  and  _433
REMARK  183  A    between atoms: _433  and  _434
REMARK  184  A    between atoms: _437  and  _439
REMARK  185  A    between atoms: _439  and  _440
REMARK  186  A    between atoms: _439  and  _442
REMARK  187  A    between atoms: _445  and  _447
REMARK  188  A    between atoms: _447  and  _448
REMARK  189  A    between atoms: _447  and  _450
REMARK  190  A    between atoms: _450  and  _451
REMARK  191  A    between atoms: _455  and  _456
REMARK  192  A    between atoms: _461  and  _463
REMARK  193  A    between atoms: _463  and  _464
REMARK  194  A    between atoms: _463  and  _466
REMARK  195  A    between atoms: _466  and  _467
REMARK  196  A    between atoms: _471  and  _472
REMARK  197  A    between atoms: _477  and  _479
REMARK  198  A    between atoms: _479  and  _480
REMARK  199  A    between atoms: _479  and  _482
REMARK  200  A    between atoms: _482  and  _483
REMARK  201  A    between atoms: _486  and  _488
REMARK  202  A    between atoms: _488  and  _489
REMARK  203  A    between atoms: _488  and  _491
REMARK  204  A    between atoms: _491  and  _492
REMARK  205  A    between atoms: _497  and  _499
REMARK  206  A    between atoms: _499  and  _500
REMARK  207  A    between atoms: _499  and  _502
REMARK  208  A    between atoms: _505  and  _507
REMARK  209  A    between atoms: _507  and  _508
REMARK  210  A    between atoms: _507  and  _510
REMARK  211  A    between atoms: _510  and  _511
REMARK  212  A    between atoms: _514  and  _516
REMARK  213  A    between atoms: _516  and  _517
REMARK  214  A    between atoms: _519  and  _521
REMARK  215  A    between atoms: _521  and  _522
REMARK  216  A    between atoms: _521  and  _524
REMARK  217  A    between atoms: _524  and  _525
REMARK  218  A    between atoms: _525  and  _526
REMARK  219  A    between atoms: _526  and  _527
REMARK                            x       y       z     vdW  Elec       q    Type
REMARK                         _______ _______ _______ _____ _____    ______ ____
ROOT
ATOM      1  O   HOH     1      -9.765   7.320  25.644  0.00  0.00    +0.000 OA
ENDROOT
TORSDOF 0
REMARK  Name = ../refined-set-2016/3u7s/3u7s_pocket.pdb
REMARK  219 active torsions:
REMARK  status: ('A' for Active; 'I' for Inactive)
REMARK    1  A    between atoms: _1  and  _3
REMARK    2  A    between atoms: _3  and  _4
REMARK    3  A    between atoms: _3  and  _6
REMARK    4  A    between atoms: _6  and  _7
REMARK    5  A    between atoms: _7  and  _8
REMARK    6  A    between atoms: _8  and  _9
REMARK    7  A    between atoms: _18  and  _20
REMARK    8  A    between atoms: _20  and  _21
REMARK    9  A    between atoms: _20  and  _23
REMARK   10  A    between atoms: _23  and  _24
REMARK   11  A    between atoms: _27  and  _29
REMARK   12  A    between atoms: _29  and  _30
REMARK   13  A    between atoms: _29  and  _32
REMARK   14  A    between atoms: _32  and  _33
REMARK   15  A    between atoms: _36  and  _38
REMARK   16  A    between atoms: _38  and  _39
REMARK   17  A    between atoms: _38  and  _41
REMARK   18  A    between atoms: _41  and  _42
REMARK   19  A    between atoms: _45  and  _47
REMARK   20  A    between atoms: _47  and  _48
REMARK   21  A    between atoms: _47  and  _50
REMARK   22  A    between atoms: _50  and  _51
REMARK   23  A    between atoms: _54  and  _56
REMARK   24  A    between atoms: _56  and  _57
REMARK   25  A    between atoms: _59  and  _61
REMARK   26  A    between atoms: _61  and  _62
REMARK   27  A    between atoms: _65  and  _67
REMARK   28  A    between atoms: _67  and  _68
REMARK   29  A    between atoms: _67  and  _70
REMARK   30  A    between atoms: _70  and  _71
REMARK   31  A    between atoms: _74  and  _76
REMARK   32  A    between atoms: _76  and  _77
REMARK   33  A    between atoms: _76  and  _79
REMARK   34  A    between atoms: _79  and  _80
REMARK   35  A    between atoms: _83  and  _85
REMARK   36  A    between atoms: _85  and  _86
REMARK   37  A    between atoms: _85  and  _88
REMARK   38  A    between atoms: _88  and  _89
REMARK   39  A    between atoms: _92  and  _94
REMARK   40  A    between atoms: _94  and  _95
REMARK   41  A    between atoms: _94  and  _97
REMARK   42  A    between atoms: _97  and  _98
REMARK   43  A    between atoms: _101  and  _103
REMARK   44  A    between atoms: _103  and  _104
REMARK   45  A    between atoms: _103  and  _106
REMARK   46  A    between atoms: _106  and  _107
REMARK   47  A    between atoms: _107  and  _108
REMARK   48  A    between atoms: _108  and  _109
REMARK   49  A    between atoms: _109  and  _110
REMARK   50  A    between atoms: _114  and  _116
REMARK   51  A    between atoms: _116  and  _117
REMARK   52  A    between atoms: _116  and  _119
REMARK   53  A    between atoms: _119  and  _120
REMARK   54  A    between atoms: _120  and  _121
REMARK   55  A    between atoms: _125  and  _126
REMARK   56  A    between atoms: _125  and  _128
REMARK   57  A    between atoms: _128  and  _129
REMARK   58  A    between atoms: _132  and  _134
REMARK   59  A    between atoms: _134  and  _135
REMARK   60  A    between atoms: _137  and  _139
REMARK   61  A    between atoms: _139  and  _140
REMARK   62  A    between atoms: _142  and  _144
REMARK   63  A    between atoms: _144  and  _145
REMARK   64  A    between atoms: _144  and  _147
REMARK   65  A    between atoms: _147  and  _148
REMARK   66  A    between atoms: _151  and  _153
REMARK   67  A    between atoms: _153  and  _154
REMARK   68  A    between atoms: _156  and  _158
REMARK   69  A    between atoms: _158  and  _159
REMARK   70  A    between atoms: _161  and  _163
REMARK   71  A    between atoms: _163  and  _164
REMARK   72  A    between atoms: _163  and  _166
REMARK   73  A    between atoms: _166  and  _167
REMARK   74  A    between atoms: _173  and  _175
REMARK   75  A    between atoms: _175  and  _176
REMARK   76  A    between atoms: _175  and  _178
REMARK   77  A    between atoms: _178  and  _179
REMARK   78  A    between atoms: _182  and  _184
REMARK   79  A    between atoms: _184  and  _185
REMARK   80  A    between atoms: _184  and  _187
REMARK   81  A    between atoms: _187  and  _188
REMARK   82  A    between atoms: _192  and  _193
REMARK   83  A    between atoms: _198  and  _200
REMARK   84  A    between atoms: _200  and  _201
REMARK   85  A    between atoms: _200  and  _203
REMARK   86  A    between atoms: _203  and  _204
REMARK   87  A    between atoms: _207  and  _209
REMARK   88  A    between atoms: _209  and  _210
REMARK   89  A    between atoms: _209  and  _212
REMARK   90  A    between atoms: _212  and  _213
REMARK   91  A    between atoms: _218  and  _220
REMARK   92  A    between atoms: _220  and  _221
REMARK   93  A    between atoms: _220  and  _223
REMARK   94  A    between atoms: _226  and  _228
REMARK   95  A    between atoms: _228  and  _229
REMARK   96  A    between atoms: _228  and  _231
REMARK   97  A    between atoms: _231  and  _232
REMARK   98  A    between atoms: _235  and  _237
REMARK   99  A    between atoms: _237  and  _238
REMARK  100  A    between atoms: _240  and  _242
REMARK  101  A    between atoms: _242  and  _243
REMARK  102  A    between atoms: _242  and  _245
REMARK  103  A    between atoms: _245  and  _246
REMARK  104  A    between atoms: _246  and  _247
REMARK  105  A    between atoms: _247  and  _248
REMARK  106  A    between atoms: _257  and  _259
REMARK  107  A    between atoms: _259  and  _260
REMARK  108  A    between atoms: _259  and  _262
REMARK  109  A    between atoms: _262  and  _263
REMARK  110  A    between atoms: _268  and  _270
REMARK  111  A    between atoms: _270  and  _271
REMARK  112  A    between atoms: _270  and  _273
REMARK  113  A    between atoms: _273  and  _274
REMARK  114  A    between atoms: _274  and  _275
REMARK  115  A    between atoms: _275  and  _276
REMARK  116  A    between atoms: _285  and  _287
REMARK  117  A    between atoms: _287  and  _288
REMARK  118  A    between atoms: _287  and  _290
REMARK  119  A    between atoms: _290  and  _291
REMARK  120  A    between atoms: _294  and  _296
REMARK  121  A    between atoms: _296  and  _297
REMARK  122  A    between atoms: _296  and  _299
REMARK  123  A    between atoms: _299  and  _300
REMARK  124  A    between atoms: _303  and  _305
REMARK  125  A    between atoms: _305  and  _306
REMARK  126  A    between atoms: _305  and  _308
REMARK  127  A    between atoms: _308  and  _309
REMARK  128  A    between atoms: _312  and  _314
REMARK  129  A    between atoms: _314  and  _315
REMARK  130  A    between atoms: _314  and  _317
REMARK  131  A    between atoms: _317  and  _318
REMARK  132  A    between atoms: _321  and  _323
REMARK  133  A    between atoms: _323  and  _324
REMARK  134  A    between atoms: _326  and  _328
REMARK  135  A    between atoms: _328  and  _329
REMARK  136  A    between atoms: _332  and  _334
REMARK  137  A    between atoms: _334  and  _335
REMARK  138  A    between atoms: _334  and  _337
REMARK  139  A    between atoms: _337  and  _338
REMARK  140  A    between atoms: _341  and  _343
REMARK  141  A    between atoms: _343  and  _344
REMARK  142  A    between atoms: _343  and  _346
REMARK  143  A    between atoms: _346  and  _347
REMARK  144  A    between atoms: _350  and  _352
REMARK  145  A    between atoms: _352  and  _353
REMARK  146  A    between atoms: _352  and  _355
REMARK  147  A    between atoms: _355  and  _356
REMARK  148  A    between atoms: _359  and  _361
REMARK  149  A    between atoms: _361  and  _362
REMARK  150  A    between atoms: _361  and  _364
REMARK  151  A    between atoms: _364  and  _365
REMARK  152  A    between atoms: _368  and  _370
REMARK  153  A    between atoms: _370  and  _371
REMARK  154  A    between atoms: _370  and  _373
REMARK  155  A    between atoms: _373  and  _374
REMARK  156  A    between atoms: _374  and  _375
REMARK  157  A    between atoms: _375  and  _376
REMARK  158  A    between atoms: _376  and  _377
REMARK  159  A    between atoms: _381  and  _383
REMARK  160  A    between atoms: _383  and  _384
REMARK  161  A    between atoms: _383  and  _386
REMARK  162  A    between atoms: _386  and  _387
REMARK  163  A    between atoms: _387  and  _388
REMARK  164  A    between atoms: _390  and  _392
REMARK  165  A    between atoms: _392  and  _393
REMARK  166  A    between atoms: _392  and  _395
REMARK  167  A    between atoms: _395  and  _396
REMARK  168  A    between atoms: _399  and  _401
REMARK  169  A    between atoms: _401  and  _402
REMARK  170  A    between atoms: _404  and  _406
REMARK  171  A    between atoms: _406  and  _407
REMARK  172  A    between atoms: _409  and  _411
REMARK  173  A    between atoms: _411  and  _412
REMARK  174  A    between atoms: _411  and  _414
REMARK  175  A    between atoms: _414  and  _415
REMARK  176  A    between atoms: _418  and  _420
REMARK  177  A    between atoms: _420  and  _421
REMARK  178  A    between atoms: _423  and  _425
REMARK  179  A    between atoms: _425  and  _426
REMARK  180  A    between atoms: _428  and  _430
REMARK  181  A    between atoms: _430  and  _431
REMARK  182  A    between atoms: _430  and  _433
REMARK  183  A    between atoms: _433  and  _434
REMARK  184  A    between atoms: _437  and  _439
REMARK  185  A    between atoms: _439  and  _440
REMARK  186  A    between atoms: _439  and  _442
REMARK  187  A    between atoms: _445  and  _447
REMARK  188  A    between atoms: _447  and  _448
REMARK  189  A    between atoms: _447  and  _450
REMARK  190  A    between atoms: _450  and  _451
REMARK  191  A    between atoms: _455  and  _456
REMARK  192  A    between atoms: _461  and  _463
REMARK  193  A    between atoms: _463  and  _464
REMARK  194  A    between atoms: _463  and  _466
REMARK  195  A    between atoms: _466  and  _467
REMARK  196  A    between atoms: _471  and  _472
REMARK  197  A    between atoms: _477  and  _479
REMARK  198  A    between atoms: _479  and  _480
REMARK  199  A    between atoms: _479  and  _482
REMARK  200  A    between atoms: _482  and  _483
REMARK  201  A    between atoms: _486  and  _488
REMARK  202  A    between atoms: _488  and  _489
REMARK  203  A    between atoms: _488  and  _491
REMARK  204  A    between atoms: _491  and  _492
REMARK  205  A    between atoms: _497  and  _499
REMARK  206  A    between atoms: _499  and  _500
REMARK  207  A    between atoms: _499  and  _502
REMARK  208  A    between atoms: _505  and  _507
REMARK  209  A    between atoms: _507  and  _508
REMARK  210  A    between atoms: _507  and  _510
REMARK  211  A    between atoms: _510  and  _511
REMARK  212  A    between atoms: _514  and  _516
REMARK  213  A    between atoms: _516  and  _517
REMARK  214  A    between atoms: _519  and  _521
REMARK  215  A    between atoms: _521  and  _522
REMARK  216  A    between atoms: _521  and  _524
REMARK  217  A    between atoms: _524  and  _525
REMARK  218  A    between atoms: _525  and  _526
REMARK  219  A    between atoms: _526  and  _527
REMARK                            x       y       z     vdW  Elec       q    Type
REMARK                         _______ _______ _______ _____ _____    ______ ____
ROOT
ATOM      1  O   HOH     1     -11.082   9.601  39.372  0.00  0.00    +0.000 OA
ENDROOT
TORSDOF 0
REMARK  Name = ../refined-set-2016/3u7s/3u7s_pocket.pdb
REMARK  219 active torsions:
REMARK  status: ('A' for Active; 'I' for Inactive)
REMARK    1  A    between atoms: _1  and  _3
REMARK    2  A    between atoms: _3  and  _4
REMARK    3  A    between atoms: _3  and  _6
REMARK    4  A    between atoms: _6  and  _7
REMARK    5  A    between atoms: _7  and  _8
REMARK    6  A    between atoms: _8  and  _9
REMARK    7  A    between atoms: _18  and  _20
REMARK    8  A    between atoms: _20  and  _21
REMARK    9  A    between atoms: _20  and  _23
REMARK   10  A    between atoms: _23  and  _24
REMARK   11  A    between atoms: _27  and  _29
REMARK   12  A    between atoms: _29  and  _30
REMARK   13  A    between atoms: _29  and  _32
REMARK   14  A    between atoms: _32  and  _33
REMARK   15  A    between atoms: _36  and  _38
REMARK   16  A    between atoms: _38  and  _39
REMARK   17  A    between atoms: _38  and  _41
REMARK   18  A    between atoms: _41  and  _42
REMARK   19  A    between atoms: _45  and  _47
REMARK   20  A    between atoms: _47  and  _48
REMARK   21  A    between atoms: _47  and  _50
REMARK   22  A    between atoms: _50  and  _51
REMARK   23  A    between atoms: _54  and  _56
REMARK   24  A    between atoms: _56  and  _57
REMARK   25  A    between atoms: _59  and  _61
REMARK   26  A    between atoms: _61  and  _62
REMARK   27  A    between atoms: _65  and  _67
REMARK   28  A    between atoms: _67  and  _68
REMARK   29  A    between atoms: _67  and  _70
REMARK   30  A    between atoms: _70  and  _71
REMARK   31  A    between atoms: _74  and  _76
REMARK   32  A    between atoms: _76  and  _77
REMARK   33  A    between atoms: _76  and  _79
REMARK   34  A    between atoms: _79  and  _80
REMARK   35  A    between atoms: _83  and  _85
REMARK   36  A    between atoms: _85  and  _86
REMARK   37  A    between atoms: _85  and  _88
REMARK   38  A    between atoms: _88  and  _89
REMARK   39  A    between atoms: _92  and  _94
REMARK   40  A    between atoms: _94  and  _95
REMARK   41  A    between atoms: _94  and  _97
REMARK   42  A    between atoms: _97  and  _98
REMARK   43  A    between atoms: _101  and  _103
REMARK   44  A    between atoms: _103  and  _104
REMARK   45  A    between atoms: _103  and  _106
REMARK   46  A    between atoms: _106  and  _107
REMARK   47  A    between atoms: _107  and  _108
REMARK   48  A    between atoms: _108  and  _109
REMARK   49  A    between atoms: _109  and  _110
REMARK   50  A    between atoms: _114  and  _116
REMARK   51  A    between atoms: _116  and  _117
REMARK   52  A    between atoms: _116  and  _119
REMARK   53  A    between atoms: _119  and  _120
REMARK   54  A    between atoms: _120  and  _121
REMARK   55  A    between atoms: _125  and  _126
REMARK   56  A    between atoms: _125  and  _128
REMARK   57  A    between atoms: _128  and  _129
REMARK   58  A    between atoms: _132  and  _134
REMARK   59  A    between atoms: _134  and  _135
REMARK   60  A    between atoms: _137  and  _139
REMARK   61  A    between atoms: _139  and  _140
REMARK   62  A    between atoms: _142  and  _144
REMARK   63  A    between atoms: _144  and  _145
REMARK   64  A    between atoms: _144  and  _147
REMARK   65  A    between atoms: _147  and  _148
REMARK   66  A    between atoms: _151  and  _153
REMARK   67  A    between atoms: _153  and  _154
REMARK   68  A    between atoms: _156  and  _158
REMARK   69  A    between atoms: _158  and  _159
REMARK   70  A    between atoms: _161  and  _163
REMARK   71  A    between atoms: _163  and  _164
REMARK   72  A    between atoms: _163  and  _166
REMARK   73  A    between atoms: _166  and  _167
REMARK   74  A    between atoms: _173  and  _175
REMARK   75  A    between atoms: _175  and  _176
REMARK   76  A    between atoms: _175  and  _178
REMARK   77  A    between atoms: _178  and  _179
REMARK   78  A    between atoms: _182  and  _184
REMARK   79  A    between atoms: _184  and  _185
REMARK   80  A    between atoms: _184  and  _187
REMARK   81  A    between atoms: _187  and  _188
REMARK   82  A    between atoms: _192  and  _193
REMARK   83  A    between atoms: _198  and  _200
REMARK   84  A    between atoms: _200  and  _201
REMARK   85  A    between atoms: _200  and  _203
REMARK   86  A    between atoms: _203  and  _204
REMARK   87  A    between atoms: _207  and  _209
REMARK   88  A    between atoms: _209  and  _210
REMARK   89  A    between atoms: _209  and  _212
REMARK   90  A    between atoms: _212  and  _213
REMARK   91  A    between atoms: _218  and  _220
REMARK   92  A    between atoms: _220  and  _221
REMARK   93  A    between atoms: _220  and  _223
REMARK   94  A    between atoms: _226  and  _228
REMARK   95  A    between atoms: _228  and  _229
REMARK   96  A    between atoms: _228  and  _231
REMARK   97  A    between atoms: _231  and  _232
REMARK   98  A    between atoms: _235  and  _237
REMARK   99  A    between atoms: _237  and  _238
REMARK  100  A    between atoms: _240  and  _242
REMARK  101  A    between atoms: _242  and  _243
REMARK  102  A    between atoms: _242  and  _245
REMARK  103  A    between atoms: _245  and  _246
REMARK  104  A    between atoms: _246  and  _247
REMARK  105  A    between atoms: _247  and  _248
REMARK  106  A    between atoms: _257  and  _259
REMARK  107  A    between atoms: _259  and  _260
REMARK  108  A    between atoms: _259  and  _262
REMARK  109  A    between atoms: _262  and  _263
REMARK  110  A    between atoms: _268  and  _270
REMARK  111  A    between atoms: _270  and  _271
REMARK  112  A    between atoms: _270  and  _273
REMARK  113  A    between atoms: _273  and  _274
REMARK  114  A    between atoms: _274  and  _275
REMARK  115  A    between atoms: _275  and  _276
REMARK  116  A    between atoms: _285  and  _287
REMARK  117  A    between atoms: _287  and  _288
REMARK  118  A    between atoms: _287  and  _290
REMARK  119  A    between atoms: _290  and  _291
REMARK  120  A    between atoms: _294  and  _296
REMARK  121  A    between atoms: _296  and  _297
REMARK  122  A    between atoms: _296  and  _299
REMARK  123  A    between atoms: _299  and  _300
REMARK  124  A    between atoms: _303  and  _305
REMARK  125  A    between atoms: _305  and  _306
REMARK  126  A    between atoms: _305  and  _308
REMARK  127  A    between atoms: _308  and  _309
REMARK  128  A    between atoms: _312  and  _314
REMARK  129  A    between atoms: _314  and  _315
REMARK  130  A    between atoms: _314  and  _317
REMARK  131  A    between atoms: _317  and  _318
REMARK  132  A    between atoms: _321  and  _323
REMARK  133  A    between atoms: _323  and  _324
REMARK  134  A    between atoms: _326  and  _328
REMARK  135  A    between atoms: _328  and  _329
REMARK  136  A    between atoms: _332  and  _334
REMARK  137  A    between atoms: _334  and  _335
REMARK  138  A    between atoms: _334  and  _337
REMARK  139  A    between atoms: _337  and  _338
REMARK  140  A    between atoms: _341  and  _343
REMARK  141  A    between atoms: _343  and  _344
REMARK  142  A    between atoms: _343  and  _346
REMARK  143  A    between atoms: _346  and  _347
REMARK  144  A    between atoms: _350  and  _352
REMARK  145  A    between atoms: _352  and  _353
REMARK  146  A    between atoms: _352  and  _355
REMARK  147  A    between atoms: _355  and  _356
REMARK  148  A    between atoms: _359  and  _361
REMARK  149  A    between atoms: _361  and  _362
REMARK  150  A    between atoms: _361  and  _364
REMARK  151  A    between atoms: _364  and  _365
REMARK  152  A    between atoms: _368  and  _370
REMARK  153  A    between atoms: _370  and  _371
REMARK  154  A    between atoms: _370  and  _373
REMARK  155  A    between atoms: _373  and  _374
REMARK  156  A    between atoms: _374  and  _375
REMARK  157  A    between atoms: _375  and  _376
REMARK  158  A    between atoms: _376  and  _377
REMARK  159  A    between atoms: _381  and  _383
REMARK  160  A    between atoms: _383  and  _384
REMARK  161  A    between atoms: _383  and  _386
REMARK  162  A    between atoms: _386  and  _387
REMARK  163  A    between atoms: _387  and  _388
REMARK  164  A    between atoms: _390  and  _392
REMARK  165  A    between atoms: _392  and  _393
REMARK  166  A    between atoms: _392  and  _395
REMARK  167  A    between atoms: _395  and  _396
REMARK  168  A    between atoms: _399  and  _401
REMARK  169  A    between atoms: _401  and  _402
REMARK  170  A    between atoms: _404  and  _406
REMARK  171  A    between atoms: _406  and  _407
REMARK  172  A    between atoms: _409  and  _411
REMARK  173  A    between atoms: _411  and  _412
REMARK  174  A    between atoms: _411  and  _414
REMARK  175  A    between atoms: _414  and  _415
REMARK  176  A    between atoms: _418  and  _420
REMARK  177  A    between atoms: _420  and  _421
REMARK  178  A    between atoms: _423  and  _425
REMARK  179  A    between atoms: _425  and  _426
REMARK  180  A    between atoms: _428  and  _430
REMARK  181  A    between atoms: _430  and  _431
REMARK  182  A    between atoms: _430  and  _433
REMARK  183  A    between atoms: _433  and  _434
REMARK  184  A    between atoms: _437  and  _439
REMARK  185  A    between atoms: _439  and  _440
REMARK  186  A    between atoms: _439  and  _442
REMARK  187  A    between atoms: _445  and  _447
REMARK  188  A    between atoms: _447  and  _448
REMARK  189  A    between atoms: _447  and  _450
REMARK  190  A    between atoms: _450  and  _451
REMARK  191  A    between atoms: _455  and  _456
REMARK  192  A    between atoms: _461  and  _463
REMARK  193  A    between atoms: _463  and  _464
REMARK  194  A    between atoms: _463  and  _466
REMARK  195  A    between atoms: _466  and  _467
REMARK  196  A    between atoms: _471  and  _472
REMARK  197  A    between atoms: _477  and  _479
REMARK  198  A    between atoms: _479  and  _480
REMARK  199  A    between atoms: _479  and  _482
REMARK  200  A    between atoms: _482  and  _483
REMARK  201  A    between atoms: _486  and  _488
REMARK  202  A    between atoms: _488  and  _489
REMARK  203  A    between atoms: _488  and  _491
REMARK  204  A    between atoms: _491  and  _492
REMARK  205  A    between atoms: _497  and  _499
REMARK  206  A    between atoms: _499  and  _500
REMARK  207  A    between atoms: _499  and  _502
REMARK  208  A    between atoms: _505  and  _507
REMARK  209  A    between atoms: _507  and  _508
REMARK  210  A    between atoms: _507  and  _510
REMARK  211  A    between atoms: _510  and  _511
REMARK  212  A    between atoms: _514  and  _516
REMARK  213  A    between atoms: _516  and  _517
REMARK  214  A    between atoms: _519  and  _521
REMARK  215  A    between atoms: _521  and  _522
REMARK  216  A    between atoms: _521  and  _524
REMARK  217  A    between atoms: _524  and  _525
REMARK  218  A    between atoms: _525  and  _526
REMARK  219  A    between atoms: _526  and  _527
REMARK                            x       y       z     vdW  Elec       q    Type
REMARK                         _______ _______ _______ _____ _____    ______ ____
ROOT
ATOM      1  O   HOH     1     -12.702   9.782  37.228  0.00  0.00    +0.000 OA
ENDROOT
TORSDOF 0
REMARK  Name = ../refined-set-2016/3u7s/3u7s_pocket.pdb
REMARK  219 active torsions:
REMARK  status: ('A' for Active; 'I' for Inactive)
REMARK    1  A    between atoms: _1  and  _3
REMARK    2  A    between atoms: _3  and  _4
REMARK    3  A    between atoms: _3  and  _6
REMARK    4  A    between atoms: _6  and  _7
REMARK    5  A    between atoms: _7  and  _8
REMARK    6  A    between atoms: _8  and  _9
REMARK    7  A    between atoms: _18  and  _20
REMARK    8  A    between atoms: _20  and  _21
REMARK    9  A    between atoms: _20  and  _23
REMARK   10  A    between atoms: _23  and  _24
REMARK   11  A    between atoms: _27  and  _29
REMARK   12  A    between atoms: _29  and  _30
REMARK   13  A    between atoms: _29  and  _32
REMARK   14  A    between atoms: _32  and  _33
REMARK   15  A    between atoms: _36  and  _38
REMARK   16  A    between atoms: _38  and  _39
REMARK   17  A    between atoms: _38  and  _41
REMARK   18  A    between atoms: _41  and  _42
REMARK   19  A    between atoms: _45  and  _47
REMARK   20  A    between atoms: _47  and  _48
REMARK   21  A    between atoms: _47  and  _50
REMARK   22  A    between atoms: _50  and  _51
REMARK   23  A    between atoms: _54  and  _56
REMARK   24  A    between atoms: _56  and  _57
REMARK   25  A    between atoms: _59  and  _61
REMARK   26  A    between atoms: _61  and  _62
REMARK   27  A    between atoms: _65  and  _67
REMARK   28  A    between atoms: _67  and  _68
REMARK   29  A    between atoms: _67  and  _70
REMARK   30  A    between atoms: _70  and  _71
REMARK   31  A    between atoms: _74  and  _76
REMARK   32  A    between atoms: _76  and  _77
REMARK   33  A    between atoms: _76  and  _79
REMARK   34  A    between atoms: _79  and  _80
REMARK   35  A    between atoms: _83  and  _85
REMARK   36  A    between atoms: _85  and  _86
REMARK   37  A    between atoms: _85  and  _88
REMARK   38  A    between atoms: _88  and  _89
REMARK   39  A    between atoms: _92  and  _94
REMARK   40  A    between atoms: _94  and  _95
REMARK   41  A    between atoms: _94  and  _97
REMARK   42  A    between atoms: _97  and  _98
REMARK   43  A    between atoms: _101  and  _103
REMARK   44  A    between atoms: _103  and  _104
REMARK   45  A    between atoms: _103  and  _106
REMARK   46  A    between atoms: _106  and  _107
REMARK   47  A    between atoms: _107  and  _108
REMARK   48  A    between atoms: _108  and  _109
REMARK   49  A    between atoms: _109  and  _110
REMARK   50  A    between atoms: _114  and  _116
REMARK   51  A    between atoms: _116  and  _117
REMARK   52  A    between atoms: _116  and  _119
REMARK   53  A    between atoms: _119  and  _120
REMARK   54  A    between atoms: _120  and  _121
REMARK   55  A    between atoms: _125  and  _126
REMARK   56  A    between atoms: _125  and  _128
REMARK   57  A    between atoms: _128  and  _129
REMARK   58  A    between atoms: _132  and  _134
REMARK   59  A    between atoms: _134  and  _135
REMARK   60  A    between atoms: _137  and  _139
REMARK   61  A    between atoms: _139  and  _140
REMARK   62  A    between atoms: _142  and  _144
REMARK   63  A    between atoms: _144  and  _145
REMARK   64  A    between atoms: _144  and  _147
REMARK   65  A    between atoms: _147  and  _148
REMARK   66  A    between atoms: _151  and  _153
REMARK   67  A    between atoms: _153  and  _154
REMARK   68  A    between atoms: _156  and  _158
REMARK   69  A    between atoms: _158  and  _159
REMARK   70  A    between atoms: _161  and  _163
REMARK   71  A    between atoms: _163  and  _164
REMARK   72  A    between atoms: _163  and  _166
REMARK   73  A    between atoms: _166  and  _167
REMARK   74  A    between atoms: _173  and  _175
REMARK   75  A    between atoms: _175  and  _176
REMARK   76  A    between atoms: _175  and  _178
REMARK   77  A    between atoms: _178  and  _179
REMARK   78  A    between atoms: _182  and  _184
REMARK   79  A    between atoms: _184  and  _185
REMARK   80  A    between atoms: _184  and  _187
REMARK   81  A    between atoms: _187  and  _188
REMARK   82  A    between atoms: _192  and  _193
REMARK   83  A    between atoms: _198  and  _200
REMARK   84  A    between atoms: _200  and  _201
REMARK   85  A    between atoms: _200  and  _203
REMARK   86  A    between atoms: _203  and  _204
REMARK   87  A    between atoms: _207  and  _209
REMARK   88  A    between atoms: _209  and  _210
REMARK   89  A    between atoms: _209  and  _212
REMARK   90  A    between atoms: _212  and  _213
REMARK   91  A    between atoms: _218  and  _220
REMARK   92  A    between atoms: _220  and  _221
REMARK   93  A    between atoms: _220  and  _223
REMARK   94  A    between atoms: _226  and  _228
REMARK   95  A    between atoms: _228  and  _229
REMARK   96  A    between atoms: _228  and  _231
REMARK   97  A    between atoms: _231  and  _232
REMARK   98  A    between atoms: _235  and  _237
REMARK   99  A    between atoms: _237  and  _238
REMARK  100  A    between atoms: _240  and  _242
REMARK  101  A    between atoms: _242  and  _243
REMARK  102  A    between atoms: _242  and  _245
REMARK  103  A    between atoms: _245  and  _246
REMARK  104  A    between atoms: _246  and  _247
REMARK  105  A    between atoms: _247  and  _248
REMARK  106  A    between atoms: _257  and  _259
REMARK  107  A    between atoms: _259  and  _260
REMARK  108  A    between atoms: _259  and  _262
REMARK  109  A    between atoms: _262  and  _263
REMARK  110  A    between atoms: _268  and  _270
REMARK  111  A    between atoms: _270  and  _271
REMARK  112  A    between atoms: _270  and  _273
REMARK  113  A    between atoms: _273  and  _274
REMARK  114  A    between atoms: _274  and  _275
REMARK  115  A    between atoms: _275  and  _276
REMARK  116  A    between atoms: _285  and  _287
REMARK  117  A    between atoms: _287  and  _288
REMARK  118  A    between atoms: _287  and  _290
REMARK  119  A    between atoms: _290  and  _291
REMARK  120  A    between atoms: _294  and  _296
REMARK  121  A    between atoms: _296  and  _297
REMARK  122  A    between atoms: _296  and  _299
REMARK  123  A    between atoms: _299  and  _300
REMARK  124  A    between atoms: _303  and  _305
REMARK  125  A    between atoms: _305  and  _306
REMARK  126  A    between atoms: _305  and  _308
REMARK  127  A    between atoms: _308  and  _309
REMARK  128  A    between atoms: _312  and  _314
REMARK  129  A    between atoms: _314  and  _315
REMARK  130  A    between atoms: _314  and  _317
REMARK  131  A    between atoms: _317  and  _318
REMARK  132  A    between atoms: _321  and  _323
REMARK  133  A    between atoms: _323  and  _324
REMARK  134  A    between atoms: _326  and  _328
REMARK  135  A    between atoms: _328  and  _329
REMARK  136  A    between atoms: _332  and  _334
REMARK  137  A    between atoms: _334  and  _335
REMARK  138  A    between atoms: _334  and  _337
REMARK  139  A    between atoms: _337  and  _338
REMARK  140  A    between atoms: _341  and  _343
REMARK  141  A    between atoms: _343  and  _344
REMARK  142  A    between atoms: _343  and  _346
REMARK  143  A    between atoms: _346  and  _347
REMARK  144  A    between atoms: _350  and  _352
REMARK  145  A    between atoms: _352  and  _353
REMARK  146  A    between atoms: _352  and  _355
REMARK  147  A    between atoms: _355  and  _356
REMARK  148  A    between atoms: _359  and  _361
REMARK  149  A    between atoms: _361  and  _362
REMARK  150  A    between atoms: _361  and  _364
REMARK  151  A    between atoms: _364  and  _365
REMARK  152  A    between atoms: _368  and  _370
REMARK  153  A    between atoms: _370  and  _371
REMARK  154  A    between atoms: _370  and  _373
REMARK  155  A    between atoms: _373  and  _374
REMARK  156  A    between atoms: _374  and  _375
REMARK  157  A    between atoms: _375  and  _376
REMARK  158  A    between atoms: _376  and  _377
REMARK  159  A    between atoms: _381  and  _383
REMARK  160  A    between atoms: _383  and  _384
REMARK  161  A    between atoms: _383  and  _386
REMARK  162  A    between atoms: _386  and  _387
REMARK  163  A    between atoms: _387  and  _388
REMARK  164  A    between atoms: _390  and  _392
REMARK  165  A    between atoms: _392  and  _393
REMARK  166  A    between atoms: _392  and  _395
REMARK  167  A    between atoms: _395  and  _396
REMARK  168  A    between atoms: _399  and  _401
REMARK  169  A    between atoms: _401  and  _402
REMARK  170  A    between atoms: _404  and  _406
REMARK  171  A    between atoms: _406  and  _407
REMARK  172  A    between atoms: _409  and  _411
REMARK  173  A    between atoms: _411  and  _412
REMARK  174  A    between atoms: _411  and  _414
REMARK  175  A    between atoms: _414  and  _415
REMARK  176  A    between atoms: _418  and  _420
REMARK  177  A    between atoms: _420  and  _421
REMARK  178  A    between atoms: _423  and  _425
REMARK  179  A    between atoms: _425  and  _426
REMARK  180  A    between atoms: _428  and  _430
REMARK  181  A    between atoms: _430  and  _431
REMARK  182  A    between atoms: _430  and  _433
REMARK  183  A    between atoms: _433  and  _434
REMARK  184  A    between atoms: _437  and  _439
REMARK  185  A    between atoms: _439  and  _440
REMARK  186  A    between atoms: _439  and  _442
REMARK  187  A    between atoms: _445  and  _447
REMARK  188  A    between atoms: _447  and  _448
REMARK  189  A    between atoms: _447  and  _450
REMARK  190  A    between atoms: _450  and  _451
REMARK  191  A    between atoms: _455  and  _456
REMARK  192  A    between atoms: _461  and  _463
REMARK  193  A    between atoms: _463  and  _464
REMARK  194  A    between atoms: _463  and  _466
REMARK  195  A    between atoms: _466  and  _467
REMARK  196  A    between atoms: _471  and  _472
REMARK  197  A    between atoms: _477  and  _479
REMARK  198  A    between atoms: _479  and  _480
REMARK  199  A    between atoms: _479  and  _482
REMARK  200  A    between atoms: _482  and  _483
REMARK  201  A    between atoms: _486  and  _488
REMARK  202  A    between atoms: _488  and  _489
REMARK  203  A    between atoms: _488  and  _491
REMARK  204  A    between atoms: _491  and  _492
REMARK  205  A    between atoms: _497  and  _499
REMARK  206  A    between atoms: _499  and  _500
REMARK  207  A    between atoms: _499  and  _502
REMARK  208  A    between atoms: _505  and  _507
REMARK  209  A    between atoms: _507  and  _508
REMARK  210  A    between atoms: _507  and  _510
REMARK  211  A    between atoms: _510  and  _511
REMARK  212  A    between atoms: _514  and  _516
REMARK  213  A    between atoms: _516  and  _517
REMARK  214  A    between atoms: _519  and  _521
REMARK  215  A    between atoms: _521  and  _522
REMARK  216  A    between atoms: _521  and  _524
REMARK  217  A    between atoms: _524  and  _525
REMARK  218  A    between atoms: _525  and  _526
REMARK  219  A    between atoms: _526  and  _527
REMARK                            x       y       z     vdW  Elec       q    Type
REMARK                         _______ _______ _______ _____ _____    ______ ____
ROOT
ATOM      1  O   HOH     1     -10.952  18.867  41.096  0.00  0.00    +0.000 OA
ENDROOT
TORSDOF 0
