REMARK  Name = ../refined-set-2016/3cyx/3cyx_pocket.pdb
REMARK  233 active torsions:
REMARK  status: ('A' for Active; 'I' for Inactive)
REMARK    1  A    between atoms: _1  and  _3
REMARK    2  A    between atoms: _3  and  _4
REMARK    3  A    between atoms: _3  and  _6
REMARK    4  A    between atoms: _6  and  _7
REMARK    5  A    between atoms: _7  and  _8
REMARK    6  A    between atoms: _8  and  _9
REMARK    7  A    between atoms: _18  and  _20
REMARK    8  A    between atoms: _20  and  _21
REMARK    9  A    between atoms: _20  and  _23
REMARK   10  A    between atoms: _23  and  _24
REMARK   11  A    between atoms: _27  and  _29
REMARK   12  A    between atoms: _29  and  _30
REMARK   13  A    between atoms: _29  and  _32
REMARK   14  A    between atoms: _32  and  _33
REMARK   15  A    between atoms: _36  and  _38
REMARK   16  A    between atoms: _38  and  _39
REMARK   17  A    between atoms: _38  and  _41
REMARK   18  A    between atoms: _41  and  _42
REMARK   19  A    between atoms: _45  and  _47
REMARK   20  A    between atoms: _47  and  _48
REMARK   21  A    between atoms: _47  and  _50
REMARK   22  A    between atoms: _50  and  _51
REMARK   23  A    between atoms: _54  and  _56
REMARK   24  A    between atoms: _56  and  _57
REMARK   25  A    between atoms: _59  and  _61
REMARK   26  A    between atoms: _61  and  _62
REMARK   27  A    between atoms: _65  and  _67
REMARK   28  A    between atoms: _67  and  _68
REMARK   29  A    between atoms: _67  and  _70
REMARK   30  A    between atoms: _70  and  _71
REMARK   31  A    between atoms: _74  and  _76
REMARK   32  A    between atoms: _76  and  _77
REMARK   33  A    between atoms: _76  and  _79
REMARK   34  A    between atoms: _79  and  _80
REMARK   35  A    between atoms: _83  and  _85
REMARK   36  A    between atoms: _85  and  _86
REMARK   37  A    between atoms: _85  and  _88
REMARK   38  A    between atoms: _88  and  _89
REMARK   39  A    between atoms: _92  and  _94
REMARK   40  A    between atoms: _94  and  _95
REMARK   41  A    between atoms: _94  and  _97
REMARK   42  A    between atoms: _100  and  _102
REMARK   43  A    between atoms: _102  and  _103
REMARK   44  A    between atoms: _102  and  _105
REMARK   45  A    between atoms: _105  and  _106
REMARK   46  A    between atoms: _106  and  _107
REMARK   47  A    between atoms: _107  and  _108
REMARK   48  A    between atoms: _108  and  _109
REMARK   49  A    between atoms: _113  and  _115
REMARK   50  A    between atoms: _115  and  _116
REMARK   51  A    between atoms: _115  and  _118
REMARK   52  A    between atoms: _118  and  _119
REMARK   53  A    between atoms: _119  and  _120
REMARK   54  A    between atoms: _122  and  _124
REMARK   55  A    between atoms: _124  and  _125
REMARK   56  A    between atoms: _124  and  _127
REMARK   57  A    between atoms: _127  and  _128
REMARK   58  A    between atoms: _131  and  _133
REMARK   59  A    between atoms: _133  and  _134
REMARK   60  A    between atoms: _136  and  _138
REMARK   61  A    between atoms: _138  and  _139
REMARK   62  A    between atoms: _141  and  _143
REMARK   63  A    between atoms: _143  and  _144
REMARK   64  A    between atoms: _143  and  _146
REMARK   65  A    between atoms: _149  and  _151
REMARK   66  A    between atoms: _151  and  _152
REMARK   67  A    between atoms: _154  and  _156
REMARK   68  A    between atoms: _156  and  _157
REMARK   69  A    between atoms: _159  and  _161
REMARK   70  A    between atoms: _161  and  _162
REMARK   71  A    between atoms: _161  and  _164
REMARK   72  A    between atoms: _164  and  _165
REMARK   73  A    between atoms: _171  and  _173
REMARK   74  A    between atoms: _173  and  _174
REMARK   75  A    between atoms: _173  and  _176
REMARK   76  A    between atoms: _176  and  _177
REMARK   77  A    between atoms: _180  and  _182
REMARK   78  A    between atoms: _182  and  _183
REMARK   79  A    between atoms: _182  and  _185
REMARK   80  A    between atoms: _188  and  _190
REMARK   81  A    between atoms: _190  and  _191
REMARK   82  A    between atoms: _190  and  _193
REMARK   83  A    between atoms: _193  and  _194
REMARK   84  A    between atoms: _198  and  _199
REMARK   85  A    between atoms: _204  and  _206
REMARK   86  A    between atoms: _206  and  _207
REMARK   87  A    between atoms: _206  and  _209
REMARK   88  A    between atoms: _209  and  _210
REMARK   89  A    between atoms: _214  and  _215
REMARK   90  A    between atoms: _220  and  _222
REMARK   91  A    between atoms: _222  and  _223
REMARK   92  A    between atoms: _222  and  _225
REMARK   93  A    between atoms: _228  and  _230
REMARK   94  A    between atoms: _230  and  _231
REMARK   95  A    between atoms: _230  and  _233
REMARK   96  A    between atoms: _233  and  _234
REMARK   97  A    between atoms: _239  and  _241
REMARK   98  A    between atoms: _241  and  _242
REMARK   99  A    between atoms: _241  and  _244
REMARK  100  A    between atoms: _244  and  _245
REMARK  101  A    between atoms: _248  and  _250
REMARK  102  A    between atoms: _250  and  _251
REMARK  103  A    between atoms: _250  and  _253
REMARK  104  A    between atoms: _253  and  _254
REMARK  105  A    between atoms: _257  and  _259
REMARK  106  A    between atoms: _259  and  _260
REMARK  107  A    between atoms: _262  and  _264
REMARK  108  A    between atoms: _264  and  _265
REMARK  109  A    between atoms: _264  and  _267
REMARK  110  A    between atoms: _267  and  _268
REMARK  111  A    between atoms: _268  and  _269
REMARK  112  A    between atoms: _269  and  _270
REMARK  113  A    between atoms: _279  and  _281
REMARK  114  A    between atoms: _281  and  _282
REMARK  115  A    between atoms: _281  and  _284
REMARK  116  A    between atoms: _284  and  _285
REMARK  117  A    between atoms: _290  and  _292
REMARK  118  A    between atoms: _292  and  _293
REMARK  119  A    between atoms: _292  and  _295
REMARK  120  A    between atoms: _295  and  _296
REMARK  121  A    between atoms: _296  and  _297
REMARK  122  A    between atoms: _297  and  _298
REMARK  123  A    between atoms: _308  and  _309
REMARK  124  A    between atoms: _314  and  _316
REMARK  125  A    between atoms: _316  and  _317
REMARK  126  A    between atoms: _316  and  _319
REMARK  127  A    between atoms: _319  and  _320
REMARK  128  A    between atoms: _323  and  _325
REMARK  129  A    between atoms: _325  and  _326
REMARK  130  A    between atoms: _325  and  _328
REMARK  131  A    between atoms: _328  and  _329
REMARK  132  A    between atoms: _332  and  _334
REMARK  133  A    between atoms: _334  and  _335
REMARK  134  A    between atoms: _334  and  _337
REMARK  135  A    between atoms: _337  and  _338
REMARK  136  A    between atoms: _341  and  _343
REMARK  137  A    between atoms: _343  and  _344
REMARK  138  A    between atoms: _343  and  _346
REMARK  139  A    between atoms: _346  and  _347
REMARK  140  A    between atoms: _350  and  _352
REMARK  141  A    between atoms: _352  and  _353
REMARK  142  A    between atoms: _352  and  _355
REMARK  143  A    between atoms: _355  and  _356
REMARK  144  A    between atoms: _359  and  _361
REMARK  145  A    between atoms: _361  and  _362
REMARK  146  A    between atoms: _364  and  _366
REMARK  147  A    between atoms: _366  and  _367
REMARK  148  A    between atoms: _370  and  _372
REMARK  149  A    between atoms: _372  and  _373
REMARK  150  A    between atoms: _372  and  _375
REMARK  151  A    between atoms: _375  and  _376
REMARK  152  A    between atoms: _379  and  _381
REMARK  153  A    between atoms: _381  and  _382
REMARK  154  A    between atoms: _381  and  _384
REMARK  155  A    between atoms: _384  and  _385
REMARK  156  A    between atoms: _388  and  _390
REMARK  157  A    between atoms: _390  and  _391
REMARK  158  A    between atoms: _390  and  _393
REMARK  159  A    between atoms: _393  and  _394
REMARK  160  A    between atoms: _397  and  _399
REMARK  161  A    between atoms: _399  and  _400
REMARK  162  A    between atoms: _399  and  _402
REMARK  163  A    between atoms: _405  and  _407
REMARK  164  A    between atoms: _407  and  _408
REMARK  165  A    between atoms: _407  and  _410
REMARK  166  A    between atoms: _410  and  _411
REMARK  167  A    between atoms: _411  and  _412
REMARK  168  A    between atoms: _412  and  _413
REMARK  169  A    between atoms: _413  and  _414
REMARK  170  A    between atoms: _418  and  _420
REMARK  171  A    between atoms: _420  and  _421
REMARK  172  A    between atoms: _420  and  _423
REMARK  173  A    between atoms: _423  and  _424
REMARK  174  A    between atoms: _424  and  _425
REMARK  175  A    between atoms: _427  and  _429
REMARK  176  A    between atoms: _429  and  _430
REMARK  177  A    between atoms: _429  and  _432
REMARK  178  A    between atoms: _432  and  _433
REMARK  179  A    between atoms: _436  and  _438
REMARK  180  A    between atoms: _438  and  _439
REMARK  181  A    between atoms: _441  and  _443
REMARK  182  A    between atoms: _443  and  _444
REMARK  183  A    between atoms: _446  and  _448
REMARK  184  A    between atoms: _448  and  _449
REMARK  185  A    between atoms: _448  and  _451
REMARK  186  A    between atoms: _454  and  _456
REMARK  187  A    between atoms: _456  and  _457
REMARK  188  A    between atoms: _459  and  _461
REMARK  189  A    between atoms: _461  and  _462
REMARK  190  A    between atoms: _464  and  _466
REMARK  191  A    between atoms: _466  and  _467
REMARK  192  A    between atoms: _466  and  _469
REMARK  193  A    between atoms: _469  and  _470
REMARK  194  A    between atoms: _476  and  _478
REMARK  195  A    between atoms: _478  and  _479
REMARK  196  A    between atoms: _478  and  _481
REMARK  197  A    between atoms: _481  and  _482
REMARK  198  A    between atoms: _485  and  _487
REMARK  199  A    between atoms: _487  and  _488
REMARK  200  A    between atoms: _487  and  _490
REMARK  201  A    between atoms: _493  and  _495
REMARK  202  A    between atoms: _495  and  _496
REMARK  203  A    between atoms: _495  and  _498
REMARK  204  A    between atoms: _498  and  _499
REMARK  205  A    between atoms: _503  and  _504
REMARK  206  A    between atoms: _509  and  _511
REMARK  207  A    between atoms: _511  and  _512
REMARK  208  A    between atoms: _511  and  _514
REMARK  209  A    between atoms: _514  and  _515
REMARK  210  A    between atoms: _519  and  _520
REMARK  211  A    between atoms: _525  and  _527
REMARK  212  A    between atoms: _527  and  _528
REMARK  213  A    between atoms: _527  and  _530
REMARK  214  A    between atoms: _533  and  _535
REMARK  215  A    between atoms: _535  and  _536
REMARK  216  A    between atoms: _535  and  _538
REMARK  217  A    between atoms: _538  and  _539
REMARK  218  A    between atoms: _544  and  _546
REMARK  219  A    between atoms: _546  and  _547
REMARK  220  A    between atoms: _546  and  _549
REMARK  221  A    between atoms: _549  and  _550
REMARK  222  A    between atoms: _553  and  _555
REMARK  223  A    between atoms: _555  and  _556
REMARK  224  A    between atoms: _555  and  _558
REMARK  225  A    between atoms: _558  and  _559
REMARK  226  A    between atoms: _562  and  _564
REMARK  227  A    between atoms: _564  and  _565
REMARK  228  A    between atoms: _567  and  _569
REMARK  229  A    between atoms: _569  and  _570
REMARK  230  A    between atoms: _569  and  _572
REMARK  231  A    between atoms: _572  and  _573
REMARK  232  A    between atoms: _573  and  _574
REMARK  233  A    between atoms: _574  and  _575
REMARK                            x       y       z     vdW  Elec       q    Type
REMARK                         _______ _______ _______ _____ _____    ______ ____
ROOT
ATOM      1  NE  ARG A   1       5.218  21.632  13.661  0.00  0.00    -0.265 N 
ATOM      2  HE  ARG A   1       4.194  21.573  13.834  0.00  0.00    +0.259 HD
ATOM      3  CZ  ARG A   1       5.650  21.485  12.408  0.00  0.00    +0.342 C 
ATOM      4  NH2 ARG A   1       6.955  21.538  12.050  0.00  0.00    -0.292 N 
ATOM      5 HH21 ARG A   1       7.686  21.701  12.772  0.00  0.00    +0.255 HD
ATOM      6 HH22 ARG A   1       7.226  21.415  11.054  0.00  0.00    +0.255 HD
ATOM      7  NH1 ARG A   1       4.750  21.267  11.444  0.00  0.00    -0.292 N 
ATOM      8 HH11 ARG A   1       3.738  21.215  11.679  0.00  0.00    +0.255 HD
ATOM      9 HH12 ARG A   1       5.062  21.149  10.459  0.00  0.00    +0.255 HD
ENDROOT
BRANCH   1  10
ATOM     10  CD  ARG A   1       6.097  21.871  14.810  0.00  0.00    +0.174 C 
BRANCH  10  11
ATOM     11  CG  ARG A   1       5.297  22.504  15.952  0.00  0.00    +0.045 C 
BRANCH  11  12
ATOM     12  CB  ARG A   1       4.600  23.787  15.568  0.00  0.00    +0.029 C 
BRANCH  12  13
ATOM     13  CA  ARG A   1       3.992  24.597  16.733  0.00  0.00    +0.133 C 
BRANCH  13  14
ATOM     14  N   ARG A   1       2.786  23.903  17.199  0.00  0.00    -0.239 NA
ATOM     15  H   ARG A   1       2.484  23.008  16.764  0.00  0.00    +0.142 HD
ENDBRANCH  13  14
BRANCH  13  16
ATOM     16  C   ARG A   1       3.704  26.008  16.258  0.00  0.00    +0.224 C 
ATOM     17  O   ARG A   1       2.717  26.182  15.511  0.00  0.00    -0.287 OA
ENDBRANCH  13  16
ENDBRANCH  12  13
ENDBRANCH  11  12
ENDBRANCH  10  11
ENDBRANCH   1  10
TORSDOF 6
REMARK  Name = ../refined-set-2016/3cyx/3cyx_pocket.pdb
REMARK  233 active torsions:
REMARK  status: ('A' for Active; 'I' for Inactive)
REMARK    1  A    between atoms: _1  and  _3
REMARK    2  A    between atoms: _3  and  _4
REMARK    3  A    between atoms: _3  and  _6
REMARK    4  A    between atoms: _6  and  _7
REMARK    5  A    between atoms: _7  and  _8
REMARK    6  A    between atoms: _8  and  _9
REMARK    7  A    between atoms: _18  and  _20
REMARK    8  A    between atoms: _20  and  _21
REMARK    9  A    between atoms: _20  and  _23
REMARK   10  A    between atoms: _23  and  _24
REMARK   11  A    between atoms: _27  and  _29
REMARK   12  A    between atoms: _29  and  _30
REMARK   13  A    between atoms: _29  and  _32
REMARK   14  A    between atoms: _32  and  _33
REMARK   15  A    between atoms: _36  and  _38
REMARK   16  A    between atoms: _38  and  _39
REMARK   17  A    between atoms: _38  and  _41
REMARK   18  A    between atoms: _41  and  _42
REMARK   19  A    between atoms: _45  and  _47
REMARK   20  A    between atoms: _47  and  _48
REMARK   21  A    between atoms: _47  and  _50
REMARK   22  A    between atoms: _50  and  _51
REMARK   23  A    between atoms: _54  and  _56
REMARK   24  A    between atoms: _56  and  _57
REMARK   25  A    between atoms: _59  and  _61
REMARK   26  A    between atoms: _61  and  _62
REMARK   27  A    between atoms: _65  and  _67
REMARK   28  A    between atoms: _67  and  _68
REMARK   29  A    between atoms: _67  and  _70
REMARK   30  A    between atoms: _70  and  _71
REMARK   31  A    between atoms: _74  and  _76
REMARK   32  A    between atoms: _76  and  _77
REMARK   33  A    between atoms: _76  and  _79
REMARK   34  A    between atoms: _79  and  _80
REMARK   35  A    between atoms: _83  and  _85
REMARK   36  A    between atoms: _85  and  _86
REMARK   37  A    between atoms: _85  and  _88
REMARK   38  A    between atoms: _88  and  _89
REMARK   39  A    between atoms: _92  and  _94
REMARK   40  A    between atoms: _94  and  _95
REMARK   41  A    between atoms: _94  and  _97
REMARK   42  A    between atoms: _100  and  _102
REMARK   43  A    between atoms: _102  and  _103
REMARK   44  A    between atoms: _102  and  _105
REMARK   45  A    between atoms: _105  and  _106
REMARK   46  A    between atoms: _106  and  _107
REMARK   47  A    between atoms: _107  and  _108
REMARK   48  A    between atoms: _108  and  _109
REMARK   49  A    between atoms: _113  and  _115
REMARK   50  A    between atoms: _115  and  _116
REMARK   51  A    between atoms: _115  and  _118
REMARK   52  A    between atoms: _118  and  _119
REMARK   53  A    between atoms: _119  and  _120
REMARK   54  A    between atoms: _122  and  _124
REMARK   55  A    between atoms: _124  and  _125
REMARK   56  A    between atoms: _124  and  _127
REMARK   57  A    between atoms: _127  and  _128
REMARK   58  A    between atoms: _131  and  _133
REMARK   59  A    between atoms: _133  and  _134
REMARK   60  A    between atoms: _136  and  _138
REMARK   61  A    between atoms: _138  and  _139
REMARK   62  A    between atoms: _141  and  _143
REMARK   63  A    between atoms: _143  and  _144
REMARK   64  A    between atoms: _143  and  _146
REMARK   65  A    between atoms: _149  and  _151
REMARK   66  A    between atoms: _151  and  _152
REMARK   67  A    between atoms: _154  and  _156
REMARK   68  A    between atoms: _156  and  _157
REMARK   69  A    between atoms: _159  and  _161
REMARK   70  A    between atoms: _161  and  _162
REMARK   71  A    between atoms: _161  and  _164
REMARK   72  A    between atoms: _164  and  _165
REMARK   73  A    between atoms: _171  and  _173
REMARK   74  A    between atoms: _173  and  _174
REMARK   75  A    between atoms: _173  and  _176
REMARK   76  A    between atoms: _176  and  _177
REMARK   77  A    between atoms: _180  and  _182
REMARK   78  A    between atoms: _182  and  _183
REMARK   79  A    between atoms: _182  and  _185
REMARK   80  A    between atoms: _188  and  _190
REMARK   81  A    between atoms: _190  and  _191
REMARK   82  A    between atoms: _190  and  _193
REMARK   83  A    between atoms: _193  and  _194
REMARK   84  A    between atoms: _198  and  _199
REMARK   85  A    between atoms: _204  and  _206
REMARK   86  A    between atoms: _206  and  _207
REMARK   87  A    between atoms: _206  and  _209
REMARK   88  A    between atoms: _209  and  _210
REMARK   89  A    between atoms: _214  and  _215
REMARK   90  A    between atoms: _220  and  _222
REMARK   91  A    between atoms: _222  and  _223
REMARK   92  A    between atoms: _222  and  _225
REMARK   93  A    between atoms: _228  and  _230
REMARK   94  A    between atoms: _230  and  _231
REMARK   95  A    between atoms: _230  and  _233
REMARK   96  A    between atoms: _233  and  _234
REMARK   97  A    between atoms: _239  and  _241
REMARK   98  A    between atoms: _241  and  _242
REMARK   99  A    between atoms: _241  and  _244
REMARK  100  A    between atoms: _244  and  _245
REMARK  101  A    between atoms: _248  and  _250
REMARK  102  A    between atoms: _250  and  _251
REMARK  103  A    between atoms: _250  and  _253
REMARK  104  A    between atoms: _253  and  _254
REMARK  105  A    between atoms: _257  and  _259
REMARK  106  A    between atoms: _259  and  _260
REMARK  107  A    between atoms: _262  and  _264
REMARK  108  A    between atoms: _264  and  _265
REMARK  109  A    between atoms: _264  and  _267
REMARK  110  A    between atoms: _267  and  _268
REMARK  111  A    between atoms: _268  and  _269
REMARK  112  A    between atoms: _269  and  _270
REMARK  113  A    between atoms: _279  and  _281
REMARK  114  A    between atoms: _281  and  _282
REMARK  115  A    between atoms: _281  and  _284
REMARK  116  A    between atoms: _284  and  _285
REMARK  117  A    between atoms: _290  and  _292
REMARK  118  A    between atoms: _292  and  _293
REMARK  119  A    between atoms: _292  and  _295
REMARK  120  A    between atoms: _295  and  _296
REMARK  121  A    between atoms: _296  and  _297
REMARK  122  A    between atoms: _297  and  _298
REMARK  123  A    between atoms: _308  and  _309
REMARK  124  A    between atoms: _314  and  _316
REMARK  125  A    between atoms: _316  and  _317
REMARK  126  A    between atoms: _316  and  _319
REMARK  127  A    between atoms: _319  and  _320
REMARK  128  A    between atoms: _323  and  _325
REMARK  129  A    between atoms: _325  and  _326
REMARK  130  A    between atoms: _325  and  _328
REMARK  131  A    between atoms: _328  and  _329
REMARK  132  A    between atoms: _332  and  _334
REMARK  133  A    between atoms: _334  and  _335
REMARK  134  A    between atoms: _334  and  _337
REMARK  135  A    between atoms: _337  and  _338
REMARK  136  A    between atoms: _341  and  _343
REMARK  137  A    between atoms: _343  and  _344
REMARK  138  A    between atoms: _343  and  _346
REMARK  139  A    between atoms: _346  and  _347
REMARK  140  A    between atoms: _350  and  _352
REMARK  141  A    between atoms: _352  and  _353
REMARK  142  A    between atoms: _352  and  _355
REMARK  143  A    between atoms: _355  and  _356
REMARK  144  A    between atoms: _359  and  _361
REMARK  145  A    between atoms: _361  and  _362
REMARK  146  A    between atoms: _364  and  _366
REMARK  147  A    between atoms: _366  and  _367
REMARK  148  A    between atoms: _370  and  _372
REMARK  149  A    between atoms: _372  and  _373
REMARK  150  A    between atoms: _372  and  _375
REMARK  151  A    between atoms: _375  and  _376
REMARK  152  A    between atoms: _379  and  _381
REMARK  153  A    between atoms: _381  and  _382
REMARK  154  A    between atoms: _381  and  _384
REMARK  155  A    between atoms: _384  and  _385
REMARK  156  A    between atoms: _388  and  _390
REMARK  157  A    between atoms: _390  and  _391
REMARK  158  A    between atoms: _390  and  _393
REMARK  159  A    between atoms: _393  and  _394
REMARK  160  A    between atoms: _397  and  _399
REMARK  161  A    between atoms: _399  and  _400
REMARK  162  A    between atoms: _399  and  _402
REMARK  163  A    between atoms: _405  and  _407
REMARK  164  A    between atoms: _407  and  _408
REMARK  165  A    between atoms: _407  and  _410
REMARK  166  A    between atoms: _410  and  _411
REMARK  167  A    between atoms: _411  and  _412
REMARK  168  A    between atoms: _412  and  _413
REMARK  169  A    between atoms: _413  and  _414
REMARK  170  A    between atoms: _418  and  _420
REMARK  171  A    between atoms: _420  and  _421
REMARK  172  A    between atoms: _420  and  _423
REMARK  173  A    between atoms: _423  and  _424
REMARK  174  A    between atoms: _424  and  _425
REMARK  175  A    between atoms: _427  and  _429
REMARK  176  A    between atoms: _429  and  _430
REMARK  177  A    between atoms: _429  and  _432
REMARK  178  A    between atoms: _432  and  _433
REMARK  179  A    between atoms: _436  and  _438
REMARK  180  A    between atoms: _438  and  _439
REMARK  181  A    between atoms: _441  and  _443
REMARK  182  A    between atoms: _443  and  _444
REMARK  183  A    between atoms: _446  and  _448
REMARK  184  A    between atoms: _448  and  _449
REMARK  185  A    between atoms: _448  and  _451
REMARK  186  A    between atoms: _454  and  _456
REMARK  187  A    between atoms: _456  and  _457
REMARK  188  A    between atoms: _459  and  _461
REMARK  189  A    between atoms: _461  and  _462
REMARK  190  A    between atoms: _464  and  _466
REMARK  191  A    between atoms: _466  and  _467
REMARK  192  A    between atoms: _466  and  _469
REMARK  193  A    between atoms: _469  and  _470
REMARK  194  A    between atoms: _476  and  _478
REMARK  195  A    between atoms: _478  and  _479
REMARK  196  A    between atoms: _478  and  _481
REMARK  197  A    between atoms: _481  and  _482
REMARK  198  A    between atoms: _485  and  _487
REMARK  199  A    between atoms: _487  and  _488
REMARK  200  A    between atoms: _487  and  _490
REMARK  201  A    between atoms: _493  and  _495
REMARK  202  A    between atoms: _495  and  _496
REMARK  203  A    between atoms: _495  and  _498
REMARK  204  A    between atoms: _498  and  _499
REMARK  205  A    between atoms: _503  and  _504
REMARK  206  A    between atoms: _509  and  _511
REMARK  207  A    between atoms: _511  and  _512
REMARK  208  A    between atoms: _511  and  _514
REMARK  209  A    between atoms: _514  and  _515
REMARK  210  A    between atoms: _519  and  _520
REMARK  211  A    between atoms: _525  and  _527
REMARK  212  A    between atoms: _527  and  _528
REMARK  213  A    between atoms: _527  and  _530
REMARK  214  A    between atoms: _533  and  _535
REMARK  215  A    between atoms: _535  and  _536
REMARK  216  A    between atoms: _535  and  _538
REMARK  217  A    between atoms: _538  and  _539
REMARK  218  A    between atoms: _544  and  _546
REMARK  219  A    between atoms: _546  and  _547
REMARK  220  A    between atoms: _546  and  _549
REMARK  221  A    between atoms: _549  and  _550
REMARK  222  A    between atoms: _553  and  _555
REMARK  223  A    between atoms: _555  and  _556
REMARK  224  A    between atoms: _555  and  _558
REMARK  225  A    between atoms: _558  and  _559
REMARK  226  A    between atoms: _562  and  _564
REMARK  227  A    between atoms: _564  and  _565
REMARK  228  A    between atoms: _567  and  _569
REMARK  229  A    between atoms: _569  and  _570
REMARK  230  A    between atoms: _569  and  _572
REMARK  231  A    between atoms: _572  and  _573
REMARK  232  A    between atoms: _573  and  _574
REMARK  233  A    between atoms: _574  and  _575
REMARK                            x       y       z     vdW  Elec       q    Type
REMARK                         _______ _______ _______ _____ _____    ______ ____
ROOT
ATOM      1  C   GLY A   5      16.874  28.144  19.910  0.00  0.00    +0.243 C 
ATOM      2  O   GLY A   5      17.840  27.384  20.027  0.00  0.00    -0.273 OA
ATOM      3  N   ALA A   6      16.682  28.906  18.851  0.00  0.00    -0.297 N 
ATOM      4  H   ALA A   6      15.835  29.507  18.803  0.00  0.00    +0.150 HD
ENDROOT
BRANCH   3   5
ATOM      5  CA  ALA A   6      17.639  28.924  17.738  0.00  0.00    +0.149 C 
ATOM      6  CB  ALA A   6      16.952  28.714  16.421  0.00  0.00    +0.031 C 
BRANCH   5   7
ATOM      7  C   ALA A   6      18.388  30.231  17.716  0.00  0.00    +0.241 C 
ATOM      8  O   ALA A   6      17.767  31.287  17.662  0.00  0.00    -0.273 OA
ATOM      9  N   ASP A   7      19.721  30.170  17.646  0.00  0.00    -0.297 N 
ATOM     10  H   ASP A   7      20.205  29.252  17.712  0.00  0.00    +0.150 HD
BRANCH   9  11
ATOM     11  CA  ASP A   7      20.496  31.396  17.476  0.00  0.00    +0.160 C 
BRANCH  11  12
ATOM     12  C   ASP A   7      20.246  32.032  16.106  0.00  0.00    +0.241 C 
ATOM     13  O   ASP A   7      20.271  33.254  15.979  0.00  0.00    -0.273 OA
ATOM     14  N   ASP A   8      20.086  31.220  15.096  0.00  0.00    -0.297 N 
ATOM     15  H   ASP A   8      19.900  30.224  15.329  0.00  0.00    +0.150 HD
BRANCH  14  16
ATOM     16  CA  ASP A   8      20.138  31.551  13.689  0.00  0.00    +0.160 C 
BRANCH  16  17
ATOM     17  C   ASP A   8      18.833  31.253  13.012  0.00  0.00    +0.241 C 
ATOM     18  O   ASP A   8      18.054  30.411  13.449  0.00  0.00    -0.273 OA
ATOM     19  N   THR A   9      18.617  31.889  11.861  0.00  0.00    -0.295 N 
ATOM     20  H   THR A   9      19.292  32.633  11.590  0.00  0.00    +0.150 HD
BRANCH  19  21
ATOM     21  CA  THR A   9      17.507  31.623  10.950  0.00  0.00    +0.176 C 
BRANCH  21  22
ATOM     22  C   THR A   9      18.021  30.729   9.848  0.00  0.00    +0.243 C 
ATOM     23  N   VAL A  10      17.358  29.596   9.642  0.00  0.00    -0.298 N 
ATOM     24  H   VAL A  10      16.470  29.435  10.158  0.00  0.00    +0.150 HD
ATOM     25  O   THR A   9      19.048  31.044   9.222  0.00  0.00    -0.273 OA
BRANCH  23  26
ATOM     26  CA  VAL A  10      17.825  28.581   8.728  0.00  0.00    +0.137 C 
BRANCH  26  27
ATOM     27  CB  VAL A  10      18.371  27.342   9.473  0.00  0.00    +0.026 C 
ATOM     28  CG2 VAL A  10      19.321  27.637  10.637  0.00  0.00    +0.002 C 
ATOM     29  CG1 VAL A  10      19.103  26.439   8.491  0.00  0.00    +0.002 C 
ENDBRANCH  26  27
BRANCH  26  30
ATOM     30  C   VAL A  10      16.656  28.183   7.844  0.00  0.00    +0.227 C 
ATOM     31  O   VAL A  10      15.583  27.824   8.357  0.00  0.00    -0.286 OA
ENDBRANCH  26  30
ENDBRANCH  23  26
ENDBRANCH  21  22
BRANCH  21  32
ATOM     32  CB  THR A   9      17.015  32.979  10.429  0.00  0.00    +0.137 C 
ATOM     33  CG2 THR A   9      15.977  32.822   9.343  0.00  0.00    +0.034 C 
BRANCH  32  34
ATOM     34  OG1 THR A   9      16.430  33.665  11.525  0.00  0.00    -0.382 OA
ATOM     35  HG1 THR A   9      17.109  33.790  12.235  0.00  0.00    +0.210 HD
ENDBRANCH  32  34
ENDBRANCH  21  32
ENDBRANCH  19  21
ENDBRANCH  16  17
BRANCH  16  36
ATOM     36  CB  ASP A   8      21.224  30.694  12.992  0.00  0.00    +0.143 C 
BRANCH  36  37
ATOM     37  CG  ASP A   8      22.600  30.836  13.603  0.00  0.00    +0.367 C 
ATOM     38  OD2 ASP A   8      23.226  29.804  13.888  0.00  0.00    -0.246 OA
ATOM     39  OD1 ASP A   8      23.076  31.963  13.824  0.00  0.00    -0.246 OA
ENDBRANCH  36  37
ENDBRANCH  16  36
ENDBRANCH  14  16
ENDBRANCH  11  12
BRANCH  11  40
ATOM     40  CB  ASP A   7      21.975  31.067  17.620  0.00  0.00    +0.143 C 
BRANCH  40  41
ATOM     41  CG  ASP A   7      22.478  30.629  18.980  0.00  0.00    +0.367 C 
ATOM     42  OD2 ASP A   7      21.754  30.761  20.004  0.00  0.00    -0.246 OA
ATOM     43  OD1 ASP A   7      23.633  30.135  19.020  0.00  0.00    -0.246 OA
ENDBRANCH  40  41
ENDBRANCH  11  40
ENDBRANCH   9  11
ENDBRANCH   5   7
ENDBRANCH   3   5
BRANCH   1  44
ATOM     44  CA  GLY A   5      15.842  28.179  20.983  0.00  0.00    +0.176 C 
BRANCH  44  47
ATOM     45  C   THR A   4      14.646  30.299  20.944  0.00  0.00    +0.243 C 
ATOM     46  O   THR A   4      15.591  30.929  21.465  0.00  0.00    -0.273 OA
ATOM     47  N   GLY A   5      14.693  29.013  20.705  0.00  0.00    -0.295 N 
ATOM     48  H   GLY A   5      13.852  28.563  20.290  0.00  0.00    +0.150 HD
BRANCH  45  49
ATOM     49  CA  THR A   4      13.370  31.047  20.557  0.00  0.00    +0.176 C 
BRANCH  49  51
ATOM     50  C   ASP A   3      13.034  30.130  18.341  0.00  0.00    +0.241 C 
ATOM     51  N   THR A   4      12.585  30.325  19.592  0.00  0.00    -0.295 N 
ATOM     52  H   THR A   4      11.656  29.948  19.867  0.00  0.00    +0.150 HD
ATOM     53  O   ASP A   3      14.137  30.522  17.995  0.00  0.00    -0.273 OA
BRANCH  50  54
ATOM     54  CA  ASP A   3      12.084  29.426  17.371  0.00  0.00    +0.160 C 
BRANCH  54  57
ATOM     55  C   LEU A   2       9.923  30.233  16.560  0.00  0.00    +0.241 C 
ATOM     56  O   LEU A   2       9.287  29.553  17.356  0.00  0.00    -0.273 OA
ATOM     57  N   ASP A   3      11.241  30.339  16.596  0.00  0.00    -0.297 N 
ATOM     58  H   ASP A   3      11.696  31.100  16.053  0.00  0.00    +0.150 HD
BRANCH  55  59
ATOM     59  CA  LEU A   2       9.219  30.922  15.406  0.00  0.00    +0.149 C 
BRANCH  59  61
ATOM     60  C   LEU A   1       9.425  29.226  13.673  0.00  0.00    +0.238 C 
ATOM     61  N   LEU A   2       8.668  29.886  14.512  0.00  0.00    -0.297 N 
ATOM     62  H   LEU A   2       7.650  29.674  14.550  0.00  0.00    +0.150 HD
ATOM     63  O   LEU A   1      10.616  29.491  13.541  0.00  0.00    -0.274 OA
BRANCH  60  64
ATOM     64  CA  LEU A   1       8.777  28.078  12.907  0.00  0.00    +0.145 C 
BRANCH  64  65
ATOM     65  N   LEU A   1       8.991  28.218  11.482  0.00  0.00    -0.238 NA
ATOM     66  H   LEU A   1       9.875  27.847  11.078  0.00  0.00    +0.142 HD
ENDBRANCH  64  65
BRANCH  64  67
ATOM     67  CB  LEU A   1       9.431  26.723  13.273  0.00  0.00    +0.026 C 
BRANCH  67  68
ATOM     68  CG  LEU A   1       9.330  26.257  14.686  0.00  0.00    +0.002 C 
ATOM     69  CD2 LEU A   1       7.921  25.916  15.099  0.00  0.00    +0.000 C 
ATOM     70  CD1 LEU A   1      10.237  25.009  14.828  0.00  0.00    +0.000 C 
ENDBRANCH  67  68
ENDBRANCH  64  67
ENDBRANCH  60  64
ENDBRANCH  59  61
BRANCH  59  71
ATOM     71  CB  LEU A   2       8.126  31.841  15.929  0.00  0.00    +0.029 C 
BRANCH  71  72
ATOM     72  CG  LEU A   2       7.310  32.574  14.843  0.00  0.00    +0.002 C 
ATOM     73  CD2 LEU A   2       6.226  33.381  15.553  0.00  0.00    +0.000 C 
ATOM     74  CD1 LEU A   2       8.232  33.427  13.985  0.00  0.00    +0.000 C 
ENDBRANCH  71  72
ENDBRANCH  59  71
ENDBRANCH  55  59
ENDBRANCH  54  57
BRANCH  54  75
ATOM     75  CB  ASP A   3      12.840  28.591  16.361  0.00  0.00    +0.143 C 
BRANCH  75  76
ATOM     76  CG  ASP A   3      13.610  27.449  16.883  0.00  0.00    +0.367 C 
ATOM     77  OD2 ASP A   3      13.603  27.368  18.142  0.00  0.00    -0.246 OA
ATOM     78  OD1 ASP A   3      14.191  26.644  16.116  0.00  0.00    -0.246 OA
ENDBRANCH  75  76
ENDBRANCH  54  75
ENDBRANCH  50  54
ENDBRANCH  49  51
BRANCH  49  79
ATOM     79  CB  THR A   4      12.587  31.406  21.818  0.00  0.00    +0.137 C 
ATOM     80  CG2 THR A   4      11.416  32.309  21.542  0.00  0.00    +0.034 C 
BRANCH  79  81
ATOM     81  OG1 THR A   4      12.106  30.196  22.435  0.00  0.00    -0.382 OA
ATOM     82  HG1 THR A   4      12.875  29.620  22.673  0.00  0.00    +0.210 HD
ENDBRANCH  79  81
ENDBRANCH  49  79
ENDBRANCH  45  49
ENDBRANCH  44  47
ENDBRANCH   1  44
TORSDOF 35
REMARK  Name = ../refined-set-2016/3cyx/3cyx_pocket.pdb
REMARK  233 active torsions:
REMARK  status: ('A' for Active; 'I' for Inactive)
REMARK    1  A    between atoms: _1  and  _3
REMARK    2  A    between atoms: _3  and  _4
REMARK    3  A    between atoms: _3  and  _6
REMARK    4  A    between atoms: _6  and  _7
REMARK    5  A    between atoms: _7  and  _8
REMARK    6  A    between atoms: _8  and  _9
REMARK    7  A    between atoms: _18  and  _20
REMARK    8  A    between atoms: _20  and  _21
REMARK    9  A    between atoms: _20  and  _23
REMARK   10  A    between atoms: _23  and  _24
REMARK   11  A    between atoms: _27  and  _29
REMARK   12  A    between atoms: _29  and  _30
REMARK   13  A    between atoms: _29  and  _32
REMARK   14  A    between atoms: _32  and  _33
REMARK   15  A    between atoms: _36  and  _38
REMARK   16  A    between atoms: _38  and  _39
REMARK   17  A    between atoms: _38  and  _41
REMARK   18  A    between atoms: _41  and  _42
REMARK   19  A    between atoms: _45  and  _47
REMARK   20  A    between atoms: _47  and  _48
REMARK   21  A    between atoms: _47  and  _50
REMARK   22  A    between atoms: _50  and  _51
REMARK   23  A    between atoms: _54  and  _56
REMARK   24  A    between atoms: _56  and  _57
REMARK   25  A    between atoms: _59  and  _61
REMARK   26  A    between atoms: _61  and  _62
REMARK   27  A    between atoms: _65  and  _67
REMARK   28  A    between atoms: _67  and  _68
REMARK   29  A    between atoms: _67  and  _70
REMARK   30  A    between atoms: _70  and  _71
REMARK   31  A    between atoms: _74  and  _76
REMARK   32  A    between atoms: _76  and  _77
REMARK   33  A    between atoms: _76  and  _79
REMARK   34  A    between atoms: _79  and  _80
REMARK   35  A    between atoms: _83  and  _85
REMARK   36  A    between atoms: _85  and  _86
REMARK   37  A    between atoms: _85  and  _88
REMARK   38  A    between atoms: _88  and  _89
REMARK   39  A    between atoms: _92  and  _94
REMARK   40  A    between atoms: _94  and  _95
REMARK   41  A    between atoms: _94  and  _97
REMARK   42  A    between atoms: _100  and  _102
REMARK   43  A    between atoms: _102  and  _103
REMARK   44  A    between atoms: _102  and  _105
REMARK   45  A    between atoms: _105  and  _106
REMARK   46  A    between atoms: _106  and  _107
REMARK   47  A    between atoms: _107  and  _108
REMARK   48  A    between atoms: _108  and  _109
REMARK   49  A    between atoms: _113  and  _115
REMARK   50  A    between atoms: _115  and  _116
REMARK   51  A    between atoms: _115  and  _118
REMARK   52  A    between atoms: _118  and  _119
REMARK   53  A    between atoms: _119  and  _120
REMARK   54  A    between atoms: _122  and  _124
REMARK   55  A    between atoms: _124  and  _125
REMARK   56  A    between atoms: _124  and  _127
REMARK   57  A    between atoms: _127  and  _128
REMARK   58  A    between atoms: _131  and  _133
REMARK   59  A    between atoms: _133  and  _134
REMARK   60  A    between atoms: _136  and  _138
REMARK   61  A    between atoms: _138  and  _139
REMARK   62  A    between atoms: _141  and  _143
REMARK   63  A    between atoms: _143  and  _144
REMARK   64  A    between atoms: _143  and  _146
REMARK   65  A    between atoms: _149  and  _151
REMARK   66  A    between atoms: _151  and  _152
REMARK   67  A    between atoms: _154  and  _156
REMARK   68  A    between atoms: _156  and  _157
REMARK   69  A    between atoms: _159  and  _161
REMARK   70  A    between atoms: _161  and  _162
REMARK   71  A    between atoms: _161  and  _164
REMARK   72  A    between atoms: _164  and  _165
REMARK   73  A    between atoms: _171  and  _173
REMARK   74  A    between atoms: _173  and  _174
REMARK   75  A    between atoms: _173  and  _176
REMARK   76  A    between atoms: _176  and  _177
REMARK   77  A    between atoms: _180  and  _182
REMARK   78  A    between atoms: _182  and  _183
REMARK   79  A    between atoms: _182  and  _185
REMARK   80  A    between atoms: _188  and  _190
REMARK   81  A    between atoms: _190  and  _191
REMARK   82  A    between atoms: _190  and  _193
REMARK   83  A    between atoms: _193  and  _194
REMARK   84  A    between atoms: _198  and  _199
REMARK   85  A    between atoms: _204  and  _206
REMARK   86  A    between atoms: _206  and  _207
REMARK   87  A    between atoms: _206  and  _209
REMARK   88  A    between atoms: _209  and  _210
REMARK   89  A    between atoms: _214  and  _215
REMARK   90  A    between atoms: _220  and  _222
REMARK   91  A    between atoms: _222  and  _223
REMARK   92  A    between atoms: _222  and  _225
REMARK   93  A    between atoms: _228  and  _230
REMARK   94  A    between atoms: _230  and  _231
REMARK   95  A    between atoms: _230  and  _233
REMARK   96  A    between atoms: _233  and  _234
REMARK   97  A    between atoms: _239  and  _241
REMARK   98  A    between atoms: _241  and  _242
REMARK   99  A    between atoms: _241  and  _244
REMARK  100  A    between atoms: _244  and  _245
REMARK  101  A    between atoms: _248  and  _250
REMARK  102  A    between atoms: _250  and  _251
REMARK  103  A    between atoms: _250  and  _253
REMARK  104  A    between atoms: _253  and  _254
REMARK  105  A    between atoms: _257  and  _259
REMARK  106  A    between atoms: _259  and  _260
REMARK  107  A    between atoms: _262  and  _264
REMARK  108  A    between atoms: _264  and  _265
REMARK  109  A    between atoms: _264  and  _267
REMARK  110  A    between atoms: _267  and  _268
REMARK  111  A    between atoms: _268  and  _269
REMARK  112  A    between atoms: _269  and  _270
REMARK  113  A    between atoms: _279  and  _281
REMARK  114  A    between atoms: _281  and  _282
REMARK  115  A    between atoms: _281  and  _284
REMARK  116  A    between atoms: _284  and  _285
REMARK  117  A    between atoms: _290  and  _292
REMARK  118  A    between atoms: _292  and  _293
REMARK  119  A    between atoms: _292  and  _295
REMARK  120  A    between atoms: _295  and  _296
REMARK  121  A    between atoms: _296  and  _297
REMARK  122  A    between atoms: _297  and  _298
REMARK  123  A    between atoms: _308  and  _309
REMARK  124  A    between atoms: _314  and  _316
REMARK  125  A    between atoms: _316  and  _317
REMARK  126  A    between atoms: _316  and  _319
REMARK  127  A    between atoms: _319  and  _320
REMARK  128  A    between atoms: _323  and  _325
REMARK  129  A    between atoms: _325  and  _326
REMARK  130  A    between atoms: _325  and  _328
REMARK  131  A    between atoms: _328  and  _329
REMARK  132  A    between atoms: _332  and  _334
REMARK  133  A    between atoms: _334  and  _335
REMARK  134  A    between atoms: _334  and  _337
REMARK  135  A    between atoms: _337  and  _338
REMARK  136  A    between atoms: _341  and  _343
REMARK  137  A    between atoms: _343  and  _344
REMARK  138  A    between atoms: _343  and  _346
REMARK  139  A    between atoms: _346  and  _347
REMARK  140  A    between atoms: _350  and  _352
REMARK  141  A    between atoms: _352  and  _353
REMARK  142  A    between atoms: _352  and  _355
REMARK  143  A    between atoms: _355  and  _356
REMARK  144  A    between atoms: _359  and  _361
REMARK  145  A    between atoms: _361  and  _362
REMARK  146  A    between atoms: _364  and  _366
REMARK  147  A    between atoms: _366  and  _367
REMARK  148  A    between atoms: _370  and  _372
REMARK  149  A    between atoms: _372  and  _373
REMARK  150  A    between atoms: _372  and  _375
REMARK  151  A    between atoms: _375  and  _376
REMARK  152  A    between atoms: _379  and  _381
REMARK  153  A    between atoms: _381  and  _382
REMARK  154  A    between atoms: _381  and  _384
REMARK  155  A    between atoms: _384  and  _385
REMARK  156  A    between atoms: _388  and  _390
REMARK  157  A    between atoms: _390  and  _391
REMARK  158  A    between atoms: _390  and  _393
REMARK  159  A    between atoms: _393  and  _394
REMARK  160  A    between atoms: _397  and  _399
REMARK  161  A    between atoms: _399  and  _400
REMARK  162  A    between atoms: _399  and  _402
REMARK  163  A    between atoms: _405  and  _407
REMARK  164  A    between atoms: _407  and  _408
REMARK  165  A    between atoms: _407  and  _410
REMARK  166  A    between atoms: _410  and  _411
REMARK  167  A    between atoms: _411  and  _412
REMARK  168  A    between atoms: _412  and  _413
REMARK  169  A    between atoms: _413  and  _414
REMARK  170  A    between atoms: _418  and  _420
REMARK  171  A    between atoms: _420  and  _421
REMARK  172  A    between atoms: _420  and  _423
REMARK  173  A    between atoms: _423  and  _424
REMARK  174  A    between atoms: _424  and  _425
REMARK  175  A    between atoms: _427  and  _429
REMARK  176  A    between atoms: _429  and  _430
REMARK  177  A    between atoms: _429  and  _432
REMARK  178  A    between atoms: _432  and  _433
REMARK  179  A    between atoms: _436  and  _438
REMARK  180  A    between atoms: _438  and  _439
REMARK  181  A    between atoms: _441  and  _443
REMARK  182  A    between atoms: _443  and  _444
REMARK  183  A    between atoms: _446  and  _448
REMARK  184  A    between atoms: _448  and  _449
REMARK  185  A    between atoms: _448  and  _451
REMARK  186  A    between atoms: _454  and  _456
REMARK  187  A    between atoms: _456  and  _457
REMARK  188  A    between atoms: _459  and  _461
REMARK  189  A    between atoms: _461  and  _462
REMARK  190  A    between atoms: _464  and  _466
REMARK  191  A    between atoms: _466  and  _467
REMARK  192  A    between atoms: _466  and  _469
REMARK  193  A    between atoms: _469  and  _470
REMARK  194  A    between atoms: _476  and  _478
REMARK  195  A    between atoms: _478  and  _479
REMARK  196  A    between atoms: _478  and  _481
REMARK  197  A    between atoms: _481  and  _482
REMARK  198  A    between atoms: _485  and  _487
REMARK  199  A    between atoms: _487  and  _488
REMARK  200  A    between atoms: _487  and  _490
REMARK  201  A    between atoms: _493  and  _495
REMARK  202  A    between atoms: _495  and  _496
REMARK  203  A    between atoms: _495  and  _498
REMARK  204  A    between atoms: _498  and  _499
REMARK  205  A    between atoms: _503  and  _504
REMARK  206  A    between atoms: _509  and  _511
REMARK  207  A    between atoms: _511  and  _512
REMARK  208  A    between atoms: _511  and  _514
REMARK  209  A    between atoms: _514  and  _515
REMARK  210  A    between atoms: _519  and  _520
REMARK  211  A    between atoms: _525  and  _527
REMARK  212  A    between atoms: _527  and  _528
REMARK  213  A    between atoms: _527  and  _530
REMARK  214  A    between atoms: _533  and  _535
REMARK  215  A    between atoms: _535  and  _536
REMARK  216  A    between atoms: _535  and  _538
REMARK  217  A    between atoms: _538  and  _539
REMARK  218  A    between atoms: _544  and  _546
REMARK  219  A    between atoms: _546  and  _547
REMARK  220  A    between atoms: _546  and  _549
REMARK  221  A    between atoms: _549  and  _550
REMARK  222  A    between atoms: _553  and  _555
REMARK  223  A    between atoms: _555  and  _556
REMARK  224  A    between atoms: _555  and  _558
REMARK  225  A    between atoms: _558  and  _559
REMARK  226  A    between atoms: _562  and  _564
REMARK  227  A    between atoms: _564  and  _565
REMARK  228  A    between atoms: _567  and  _569
REMARK  229  A    between atoms: _569  and  _570
REMARK  230  A    between atoms: _569  and  _572
REMARK  231  A    between atoms: _572  and  _573
REMARK  232  A    between atoms: _573  and  _574
REMARK  233  A    between atoms: _574  and  _575
REMARK                            x       y       z     vdW  Elec       q    Type
REMARK                         _______ _______ _______ _____ _____    ______ ____
ROOT
ATOM      1  C   GLY A   5      21.611  19.923  17.666  0.00  0.00    +0.243 C 
ATOM      2  N   VAL A   6      20.411  19.497  18.034  0.00  0.00    -0.297 N 
ATOM      3  H   VAL A   6      19.607  20.153  18.103  0.00  0.00    +0.150 HD
ATOM      4  O   GLY A   5      22.612  19.238  17.709  0.00  0.00    -0.273 OA
ENDROOT
BRANCH   1   5
ATOM      5  CA  GLY A   5      21.724  21.370  17.256  0.00  0.00    +0.176 C 
BRANCH   5   7
ATOM      6  C   GLY A   4      23.229  22.635  15.840  0.00  0.00    +0.243 C 
ATOM      7  N   GLY A   5      22.798  21.497  16.287  0.00  0.00    -0.295 N 
ATOM      8  H   GLY A   5      23.246  20.628  15.932  0.00  0.00    +0.150 HD
ATOM      9  O   GLY A   4      22.709  23.711  16.033  0.00  0.00    -0.273 OA
BRANCH   6  10
ATOM     10  CA  GLY A   4      24.524  22.464  15.044  0.00  0.00    +0.176 C 
BRANCH  10  12
ATOM     11  C   ILE A   3      25.111  23.564  13.003  0.00  0.00    +0.241 C 
ATOM     12  N   GLY A   4      24.882  23.636  14.315  0.00  0.00    -0.295 N 
ATOM     13  H   GLY A   4      24.965  24.548  14.807  0.00  0.00    +0.150 HD
ATOM     14  O   ILE A   3      24.936  22.569  12.360  0.00  0.00    -0.273 OA
BRANCH  11  15
ATOM     15  CA  ILE A   3      25.573  24.868  12.410  0.00  0.00    +0.149 C 
BRANCH  15  18
ATOM     16  C   MET A   2      27.644  25.055  11.164  0.00  0.00    +0.241 C 
ATOM     17  O   MET A   2      28.128  25.852  11.972  0.00  0.00    -0.273 OA
ATOM     18  N   ILE A   3      26.435  24.543  11.273  0.00  0.00    -0.297 N 
ATOM     19  H   ILE A   3      26.087  23.896  10.537  0.00  0.00    +0.150 HD
BRANCH  16  20
ATOM     20  CA  MET A   2      28.472  24.579   9.984  0.00  0.00    +0.149 C 
BRANCH  20  22
ATOM     21  C   LYS A   1      28.667  26.185   8.152  0.00  0.00    +0.238 C 
ATOM     22  N   MET A   2      29.044  25.780   9.367  0.00  0.00    -0.297 N 
ATOM     23  H   MET A   2      29.759  26.328   9.887  0.00  0.00    +0.150 HD
ATOM     24  O   LYS A   1      27.947  25.550   7.404  0.00  0.00    -0.274 OA
BRANCH  21  25
ATOM     25  CA  LYS A   1      29.152  27.561   7.740  0.00  0.00    +0.145 C 
BRANCH  25  26
ATOM     26  N   LYS A   1      29.238  27.613   6.276  0.00  0.00    -0.238 NA
ATOM     27  H   LYS A   1      28.564  27.054   5.714  0.00  0.00    +0.142 HD
ENDBRANCH  25  26
BRANCH  25  28
ATOM     28  CB  LYS A   1      28.170  28.659   8.218  0.00  0.00    +0.026 C 
BRANCH  28  29
ATOM     29  CG  LYS A   1      28.202  29.028   9.688  0.00  0.00    -0.000 C 
BRANCH  29  30
ATOM     30  CD  LYS A   1      27.244  30.124  10.020  0.00  0.00    -0.024 C 
BRANCH  30  31
ATOM     31  CE  LYS A   1      27.237  30.457  11.496  0.00  0.00    -0.086 C 
BRANCH  31  32
ATOM     32  NZ  LYS A   1      27.660  31.828  11.716  0.00  0.00    +0.380 N 
ATOM     33  HZ1 LYS A   1      27.647  32.034  12.735  0.00  0.00    -0.089 HD
ATOM     34  HZ2 LYS A   1      28.624  31.956  11.347  0.00  0.00    -0.089 HD
ATOM     35  HZ3 LYS A   1      27.011  32.473  11.223  0.00  0.00    -0.089 HD
ENDBRANCH  31  32
ENDBRANCH  30  31
ENDBRANCH  29  30
ENDBRANCH  28  29
ENDBRANCH  25  28
ENDBRANCH  21  25
ENDBRANCH  20  22
BRANCH  20  36
ATOM     36  CB  MET A   2      29.554  23.661  10.480  0.00  0.00    +0.041 C 
BRANCH  36  37
ATOM     37  CG  MET A   2      30.361  22.976   9.464  0.00  0.00    +0.060 C 
BRANCH  37  38
ATOM     38  SD  MET A   2      29.503  21.841   8.491  0.00  0.00    -0.139 S 
ATOM     39  CE  MET A   2      30.486  20.352   8.652  0.00  0.00    +0.069 C 
ENDBRANCH  37  38
ENDBRANCH  36  37
ENDBRANCH  20  36
ENDBRANCH  16  20
ENDBRANCH  15  18
BRANCH  15  40
ATOM     40  CB  ILE A   3      24.423  25.786  12.077  0.00  0.00    +0.027 C 
ATOM     41  CG2 ILE A   3      24.947  27.130  11.652  0.00  0.00    +0.002 C 
BRANCH  40  42
ATOM     42  CG1 ILE A   3      23.495  25.187  11.041  0.00  0.00    +0.002 C 
ATOM     43  CD1 ILE A   3      22.086  25.622  10.850  0.00  0.00    +0.000 C 
ENDBRANCH  40  42
ENDBRANCH  15  40
ENDBRANCH  11  15
ENDBRANCH  10  12
ENDBRANCH   6  10
ENDBRANCH   5   7
ENDBRANCH   1   5
BRANCH   2  44
ATOM     44  CA  VAL A   6      20.251  18.073  18.341  0.00  0.00    +0.149 C 
BRANCH  44  45
ATOM     45  C   VAL A   6      20.533  17.308  17.053  0.00  0.00    +0.241 C 
ATOM     46  N   GLY A   7      21.317  16.252  17.216  0.00  0.00    -0.295 N 
ATOM     47  H   GLY A   7      21.689  16.068  18.170  0.00  0.00    +0.150 HD
ATOM     48  O   VAL A   6      20.087  17.659  15.959  0.00  0.00    -0.273 OA
BRANCH  46  49
ATOM     49  CA  GLY A   7      21.690  15.341  16.162  0.00  0.00    +0.176 C 
BRANCH  49  50
ATOM     50  C   GLY A   7      22.982  15.761  15.522  0.00  0.00    +0.243 C 
ATOM     51  N   GLY A   8      23.608  16.855  15.875  0.00  0.00    -0.295 N 
ATOM     52  H   GLY A   8      23.193  17.478  16.597  0.00  0.00    +0.150 HD
ATOM     53  O   GLY A   7      23.496  15.072  14.668  0.00  0.00    -0.273 OA
BRANCH  51  54
ATOM     54  CA  GLY A   8      24.860  17.200  15.274  0.00  0.00    +0.176 C 
BRANCH  54  55
ATOM     55  C   GLY A   8      24.765  18.415  14.370  0.00  0.00    +0.243 C 
ATOM     56  O   GLY A   8      23.882  19.286  14.512  0.00  0.00    -0.273 OA
ATOM     57  N   PHE A   9      25.641  18.476  13.369  0.00  0.00    -0.297 N 
ATOM     58  H   PHE A   9      26.221  17.632  13.188  0.00  0.00    +0.150 HD
BRANCH  57  59
ATOM     59  CA  PHE A   9      25.848  19.617  12.518  0.00  0.00    +0.153 C 
BRANCH  59  60
ATOM     60  C   PHE A   9      25.423  19.391  11.084  0.00  0.00    +0.241 C 
ATOM     61  O   PHE A   9      25.495  18.273  10.574  0.00  0.00    -0.273 OA
ATOM     62  N   ILE A  10      25.024  20.446  10.435  0.00  0.00    -0.298 N 
ATOM     63  H   ILE A  10      24.844  21.314  10.978  0.00  0.00    +0.150 HD
BRANCH  62  64
ATOM     64  CA  ILE A  10      24.813  20.485   8.986  0.00  0.00    +0.137 C 
BRANCH  64  65
ATOM     65  CB  ILE A  10      23.303  20.592   8.615  0.00  0.00    +0.026 C 
ATOM     66  CG2 ILE A  10      22.585  19.352   9.056  0.00  0.00    +0.002 C 
BRANCH  65  67
ATOM     67  CG1 ILE A  10      22.608  21.852   9.142  0.00  0.00    +0.002 C 
ATOM     68  CD1 ILE A  10      21.228  22.128   8.575  0.00  0.00    +0.000 C 
ENDBRANCH  65  67
ENDBRANCH  64  65
BRANCH  64  69
ATOM     69  C   ILE A  10      25.593  21.666   8.407  0.00  0.00    +0.227 C 
ATOM     70  O   ILE A  10      25.858  22.679   9.048  0.00  0.00    -0.286 OA
ENDBRANCH  64  69
ENDBRANCH  62  64
ENDBRANCH  59  60
BRANCH  59  71
ATOM     71  CB  PHE A   9      27.317  20.005  12.516  0.00  0.00    +0.055 C 
BRANCH  71  72
ATOM     72  CG  PHE A   9      27.787  20.573  13.854  0.00  0.00    -0.020 A 
ATOM     73  CD2 PHE A   9      28.085  19.706  14.887  0.00  0.00    -0.004 A 
ATOM     74  CE2 PHE A   9      28.525  20.223  16.070  0.00  0.00    -0.000 A 
ATOM     75  CZ  PHE A   9      28.642  21.595  16.271  0.00  0.00    -0.000 A 
ATOM     76  CE1 PHE A   9      28.345  22.464  15.247  0.00  0.00    -0.000 A 
ATOM     77  CD1 PHE A   9      27.899  21.925  14.054  0.00  0.00    -0.004 A 
ENDBRANCH  71  72
ENDBRANCH  59  71
ENDBRANCH  57  59
ENDBRANCH  54  55
ENDBRANCH  51  54
ENDBRANCH  49  50
ENDBRANCH  46  49
ENDBRANCH  44  45
BRANCH  44  78
ATOM     78  CB  VAL A   6      18.883  17.785  18.953  0.00  0.00    +0.027 C 
ATOM     79  CG2 VAL A   6      18.859  18.102  20.451  0.00  0.00    +0.002 C 
ATOM     80  CG1 VAL A   6      18.464  16.328  18.803  0.00  0.00    +0.002 C 
ENDBRANCH  44  78
ENDBRANCH   2  44
TORSDOF 35
REMARK  Name = ../refined-set-2016/3cyx/3cyx_pocket.pdb
REMARK  233 active torsions:
REMARK  status: ('A' for Active; 'I' for Inactive)
REMARK    1  A    between atoms: _1  and  _3
REMARK    2  A    between atoms: _3  and  _4
REMARK    3  A    between atoms: _3  and  _6
REMARK    4  A    between atoms: _6  and  _7
REMARK    5  A    between atoms: _7  and  _8
REMARK    6  A    between atoms: _8  and  _9
REMARK    7  A    between atoms: _18  and  _20
REMARK    8  A    between atoms: _20  and  _21
REMARK    9  A    between atoms: _20  and  _23
REMARK   10  A    between atoms: _23  and  _24
REMARK   11  A    between atoms: _27  and  _29
REMARK   12  A    between atoms: _29  and  _30
REMARK   13  A    between atoms: _29  and  _32
REMARK   14  A    between atoms: _32  and  _33
REMARK   15  A    between atoms: _36  and  _38
REMARK   16  A    between atoms: _38  and  _39
REMARK   17  A    between atoms: _38  and  _41
REMARK   18  A    between atoms: _41  and  _42
REMARK   19  A    between atoms: _45  and  _47
REMARK   20  A    between atoms: _47  and  _48
REMARK   21  A    between atoms: _47  and  _50
REMARK   22  A    between atoms: _50  and  _51
REMARK   23  A    between atoms: _54  and  _56
REMARK   24  A    between atoms: _56  and  _57
REMARK   25  A    between atoms: _59  and  _61
REMARK   26  A    between atoms: _61  and  _62
REMARK   27  A    between atoms: _65  and  _67
REMARK   28  A    between atoms: _67  and  _68
REMARK   29  A    between atoms: _67  and  _70
REMARK   30  A    between atoms: _70  and  _71
REMARK   31  A    between atoms: _74  and  _76
REMARK   32  A    between atoms: _76  and  _77
REMARK   33  A    between atoms: _76  and  _79
REMARK   34  A    between atoms: _79  and  _80
REMARK   35  A    between atoms: _83  and  _85
REMARK   36  A    between atoms: _85  and  _86
REMARK   37  A    between atoms: _85  and  _88
REMARK   38  A    between atoms: _88  and  _89
REMARK   39  A    between atoms: _92  and  _94
REMARK   40  A    between atoms: _94  and  _95
REMARK   41  A    between atoms: _94  and  _97
REMARK   42  A    between atoms: _100  and  _102
REMARK   43  A    between atoms: _102  and  _103
REMARK   44  A    between atoms: _102  and  _105
REMARK   45  A    between atoms: _105  and  _106
REMARK   46  A    between atoms: _106  and  _107
REMARK   47  A    between atoms: _107  and  _108
REMARK   48  A    between atoms: _108  and  _109
REMARK   49  A    between atoms: _113  and  _115
REMARK   50  A    between atoms: _115  and  _116
REMARK   51  A    between atoms: _115  and  _118
REMARK   52  A    between atoms: _118  and  _119
REMARK   53  A    between atoms: _119  and  _120
REMARK   54  A    between atoms: _122  and  _124
REMARK   55  A    between atoms: _124  and  _125
REMARK   56  A    between atoms: _124  and  _127
REMARK   57  A    between atoms: _127  and  _128
REMARK   58  A    between atoms: _131  and  _133
REMARK   59  A    between atoms: _133  and  _134
REMARK   60  A    between atoms: _136  and  _138
REMARK   61  A    between atoms: _138  and  _139
REMARK   62  A    between atoms: _141  and  _143
REMARK   63  A    between atoms: _143  and  _144
REMARK   64  A    between atoms: _143  and  _146
REMARK   65  A    between atoms: _149  and  _151
REMARK   66  A    between atoms: _151  and  _152
REMARK   67  A    between atoms: _154  and  _156
REMARK   68  A    between atoms: _156  and  _157
REMARK   69  A    between atoms: _159  and  _161
REMARK   70  A    between atoms: _161  and  _162
REMARK   71  A    between atoms: _161  and  _164
REMARK   72  A    between atoms: _164  and  _165
REMARK   73  A    between atoms: _171  and  _173
REMARK   74  A    between atoms: _173  and  _174
REMARK   75  A    between atoms: _173  and  _176
REMARK   76  A    between atoms: _176  and  _177
REMARK   77  A    between atoms: _180  and  _182
REMARK   78  A    between atoms: _182  and  _183
REMARK   79  A    between atoms: _182  and  _185
REMARK   80  A    between atoms: _188  and  _190
REMARK   81  A    between atoms: _190  and  _191
REMARK   82  A    between atoms: _190  and  _193
REMARK   83  A    between atoms: _193  and  _194
REMARK   84  A    between atoms: _198  and  _199
REMARK   85  A    between atoms: _204  and  _206
REMARK   86  A    between atoms: _206  and  _207
REMARK   87  A    between atoms: _206  and  _209
REMARK   88  A    between atoms: _209  and  _210
REMARK   89  A    between atoms: _214  and  _215
REMARK   90  A    between atoms: _220  and  _222
REMARK   91  A    between atoms: _222  and  _223
REMARK   92  A    between atoms: _222  and  _225
REMARK   93  A    between atoms: _228  and  _230
REMARK   94  A    between atoms: _230  and  _231
REMARK   95  A    between atoms: _230  and  _233
REMARK   96  A    between atoms: _233  and  _234
REMARK   97  A    between atoms: _239  and  _241
REMARK   98  A    between atoms: _241  and  _242
REMARK   99  A    between atoms: _241  and  _244
REMARK  100  A    between atoms: _244  and  _245
REMARK  101  A    between atoms: _248  and  _250
REMARK  102  A    between atoms: _250  and  _251
REMARK  103  A    between atoms: _250  and  _253
REMARK  104  A    between atoms: _253  and  _254
REMARK  105  A    between atoms: _257  and  _259
REMARK  106  A    between atoms: _259  and  _260
REMARK  107  A    between atoms: _262  and  _264
REMARK  108  A    between atoms: _264  and  _265
REMARK  109  A    between atoms: _264  and  _267
REMARK  110  A    between atoms: _267  and  _268
REMARK  111  A    between atoms: _268  and  _269
REMARK  112  A    between atoms: _269  and  _270
REMARK  113  A    between atoms: _279  and  _281
REMARK  114  A    between atoms: _281  and  _282
REMARK  115  A    between atoms: _281  and  _284
REMARK  116  A    between atoms: _284  and  _285
REMARK  117  A    between atoms: _290  and  _292
REMARK  118  A    between atoms: _292  and  _293
REMARK  119  A    between atoms: _292  and  _295
REMARK  120  A    between atoms: _295  and  _296
REMARK  121  A    between atoms: _296  and  _297
REMARK  122  A    between atoms: _297  and  _298
REMARK  123  A    between atoms: _308  and  _309
REMARK  124  A    between atoms: _314  and  _316
REMARK  125  A    between atoms: _316  and  _317
REMARK  126  A    between atoms: _316  and  _319
REMARK  127  A    between atoms: _319  and  _320
REMARK  128  A    between atoms: _323  and  _325
REMARK  129  A    between atoms: _325  and  _326
REMARK  130  A    between atoms: _325  and  _328
REMARK  131  A    between atoms: _328  and  _329
REMARK  132  A    between atoms: _332  and  _334
REMARK  133  A    between atoms: _334  and  _335
REMARK  134  A    between atoms: _334  and  _337
REMARK  135  A    between atoms: _337  and  _338
REMARK  136  A    between atoms: _341  and  _343
REMARK  137  A    between atoms: _343  and  _344
REMARK  138  A    between atoms: _343  and  _346
REMARK  139  A    between atoms: _346  and  _347
REMARK  140  A    between atoms: _350  and  _352
REMARK  141  A    between atoms: _352  and  _353
REMARK  142  A    between atoms: _352  and  _355
REMARK  143  A    between atoms: _355  and  _356
REMARK  144  A    between atoms: _359  and  _361
REMARK  145  A    between atoms: _361  and  _362
REMARK  146  A    between atoms: _364  and  _366
REMARK  147  A    between atoms: _366  and  _367
REMARK  148  A    between atoms: _370  and  _372
REMARK  149  A    between atoms: _372  and  _373
REMARK  150  A    between atoms: _372  and  _375
REMARK  151  A    between atoms: _375  and  _376
REMARK  152  A    between atoms: _379  and  _381
REMARK  153  A    between atoms: _381  and  _382
REMARK  154  A    between atoms: _381  and  _384
REMARK  155  A    between atoms: _384  and  _385
REMARK  156  A    between atoms: _388  and  _390
REMARK  157  A    between atoms: _390  and  _391
REMARK  158  A    between atoms: _390  and  _393
REMARK  159  A    between atoms: _393  and  _394
REMARK  160  A    between atoms: _397  and  _399
REMARK  161  A    between atoms: _399  and  _400
REMARK  162  A    between atoms: _399  and  _402
REMARK  163  A    between atoms: _405  and  _407
REMARK  164  A    between atoms: _407  and  _408
REMARK  165  A    between atoms: _407  and  _410
REMARK  166  A    between atoms: _410  and  _411
REMARK  167  A    between atoms: _411  and  _412
REMARK  168  A    between atoms: _412  and  _413
REMARK  169  A    between atoms: _413  and  _414
REMARK  170  A    between atoms: _418  and  _420
REMARK  171  A    between atoms: _420  and  _421
REMARK  172  A    between atoms: _420  and  _423
REMARK  173  A    between atoms: _423  and  _424
REMARK  174  A    between atoms: _424  and  _425
REMARK  175  A    between atoms: _427  and  _429
REMARK  176  A    between atoms: _429  and  _430
REMARK  177  A    between atoms: _429  and  _432
REMARK  178  A    between atoms: _432  and  _433
REMARK  179  A    between atoms: _436  and  _438
REMARK  180  A    between atoms: _438  and  _439
REMARK  181  A    between atoms: _441  and  _443
REMARK  182  A    between atoms: _443  and  _444
REMARK  183  A    between atoms: _446  and  _448
REMARK  184  A    between atoms: _448  and  _449
REMARK  185  A    between atoms: _448  and  _451
REMARK  186  A    between atoms: _454  and  _456
REMARK  187  A    between atoms: _456  and  _457
REMARK  188  A    between atoms: _459  and  _461
REMARK  189  A    between atoms: _461  and  _462
REMARK  190  A    between atoms: _464  and  _466
REMARK  191  A    between atoms: _466  and  _467
REMARK  192  A    between atoms: _466  and  _469
REMARK  193  A    between atoms: _469  and  _470
REMARK  194  A    between atoms: _476  and  _478
REMARK  195  A    between atoms: _478  and  _479
REMARK  196  A    between atoms: _478  and  _481
REMARK  197  A    between atoms: _481  and  _482
REMARK  198  A    between atoms: _485  and  _487
REMARK  199  A    between atoms: _487  and  _488
REMARK  200  A    between atoms: _487  and  _490
REMARK  201  A    between atoms: _493  and  _495
REMARK  202  A    between atoms: _495  and  _496
REMARK  203  A    between atoms: _495  and  _498
REMARK  204  A    between atoms: _498  and  _499
REMARK  205  A    between atoms: _503  and  _504
REMARK  206  A    between atoms: _509  and  _511
REMARK  207  A    between atoms: _511  and  _512
REMARK  208  A    between atoms: _511  and  _514
REMARK  209  A    between atoms: _514  and  _515
REMARK  210  A    between atoms: _519  and  _520
REMARK  211  A    between atoms: _525  and  _527
REMARK  212  A    between atoms: _527  and  _528
REMARK  213  A    between atoms: _527  and  _530
REMARK  214  A    between atoms: _533  and  _535
REMARK  215  A    between atoms: _535  and  _536
REMARK  216  A    between atoms: _535  and  _538
REMARK  217  A    between atoms: _538  and  _539
REMARK  218  A    between atoms: _544  and  _546
REMARK  219  A    between atoms: _546  and  _547
REMARK  220  A    between atoms: _546  and  _549
REMARK  221  A    between atoms: _549  and  _550
REMARK  222  A    between atoms: _553  and  _555
REMARK  223  A    between atoms: _555  and  _556
REMARK  224  A    between atoms: _555  and  _558
REMARK  225  A    between atoms: _558  and  _559
REMARK  226  A    between atoms: _562  and  _564
REMARK  227  A    between atoms: _564  and  _565
REMARK  228  A    between atoms: _567  and  _569
REMARK  229  A    between atoms: _569  and  _570
REMARK  230  A    between atoms: _569  and  _572
REMARK  231  A    between atoms: _572  and  _573
REMARK  232  A    between atoms: _573  and  _574
REMARK  233  A    between atoms: _574  and  _575
REMARK                            x       y       z     vdW  Elec       q    Type
REMARK                         _______ _______ _______ _____ _____    ______ ____
ROOT
ATOM      1  CA  VAL A   1      24.827  25.713   5.208  0.00  0.00    +0.133 C 
ENDROOT
BRANCH   1   2
ATOM      2  CB  VAL A   1      23.925  26.337   6.296  0.00  0.00    +0.023 C 
ATOM      3  CG2 VAL A   1      24.772  27.046   7.330  0.00  0.00    +0.002 C 
ATOM      4  CG1 VAL A   1      23.073  25.290   6.977  0.00  0.00    +0.002 C 
ENDBRANCH   1   2
BRANCH   1   5
ATOM      5  N   VAL A   1      25.729  24.714   5.778  0.00  0.00    -0.239 NA
ATOM      6  H   VAL A   1      26.558  25.047   6.310  0.00  0.00    +0.142 HD
ENDBRANCH   1   5
BRANCH   1   7
ATOM      7  C   VAL A   1      25.598  26.798   4.474  0.00  0.00    +0.224 C 
ATOM      8  O   VAL A   1      26.830  26.929   4.643  0.00  0.00    -0.287 OA
ENDBRANCH   1   7
TORSDOF 3
REMARK  Name = ../refined-set-2016/3cyx/3cyx_pocket.pdb
REMARK  233 active torsions:
REMARK  status: ('A' for Active; 'I' for Inactive)
REMARK    1  A    between atoms: _1  and  _3
REMARK    2  A    between atoms: _3  and  _4
REMARK    3  A    between atoms: _3  and  _6
REMARK    4  A    between atoms: _6  and  _7
REMARK    5  A    between atoms: _7  and  _8
REMARK    6  A    between atoms: _8  and  _9
REMARK    7  A    between atoms: _18  and  _20
REMARK    8  A    between atoms: _20  and  _21
REMARK    9  A    between atoms: _20  and  _23
REMARK   10  A    between atoms: _23  and  _24
REMARK   11  A    between atoms: _27  and  _29
REMARK   12  A    between atoms: _29  and  _30
REMARK   13  A    between atoms: _29  and  _32
REMARK   14  A    between atoms: _32  and  _33
REMARK   15  A    between atoms: _36  and  _38
REMARK   16  A    between atoms: _38  and  _39
REMARK   17  A    between atoms: _38  and  _41
REMARK   18  A    between atoms: _41  and  _42
REMARK   19  A    between atoms: _45  and  _47
REMARK   20  A    between atoms: _47  and  _48
REMARK   21  A    between atoms: _47  and  _50
REMARK   22  A    between atoms: _50  and  _51
REMARK   23  A    between atoms: _54  and  _56
REMARK   24  A    between atoms: _56  and  _57
REMARK   25  A    between atoms: _59  and  _61
REMARK   26  A    between atoms: _61  and  _62
REMARK   27  A    between atoms: _65  and  _67
REMARK   28  A    between atoms: _67  and  _68
REMARK   29  A    between atoms: _67  and  _70
REMARK   30  A    between atoms: _70  and  _71
REMARK   31  A    between atoms: _74  and  _76
REMARK   32  A    between atoms: _76  and  _77
REMARK   33  A    between atoms: _76  and  _79
REMARK   34  A    between atoms: _79  and  _80
REMARK   35  A    between atoms: _83  and  _85
REMARK   36  A    between atoms: _85  and  _86
REMARK   37  A    between atoms: _85  and  _88
REMARK   38  A    between atoms: _88  and  _89
REMARK   39  A    between atoms: _92  and  _94
REMARK   40  A    between atoms: _94  and  _95
REMARK   41  A    between atoms: _94  and  _97
REMARK   42  A    between atoms: _100  and  _102
REMARK   43  A    between atoms: _102  and  _103
REMARK   44  A    between atoms: _102  and  _105
REMARK   45  A    between atoms: _105  and  _106
REMARK   46  A    between atoms: _106  and  _107
REMARK   47  A    between atoms: _107  and  _108
REMARK   48  A    between atoms: _108  and  _109
REMARK   49  A    between atoms: _113  and  _115
REMARK   50  A    between atoms: _115  and  _116
REMARK   51  A    between atoms: _115  and  _118
REMARK   52  A    between atoms: _118  and  _119
REMARK   53  A    between atoms: _119  and  _120
REMARK   54  A    between atoms: _122  and  _124
REMARK   55  A    between atoms: _124  and  _125
REMARK   56  A    between atoms: _124  and  _127
REMARK   57  A    between atoms: _127  and  _128
REMARK   58  A    between atoms: _131  and  _133
REMARK   59  A    between atoms: _133  and  _134
REMARK   60  A    between atoms: _136  and  _138
REMARK   61  A    between atoms: _138  and  _139
REMARK   62  A    between atoms: _141  and  _143
REMARK   63  A    between atoms: _143  and  _144
REMARK   64  A    between atoms: _143  and  _146
REMARK   65  A    between atoms: _149  and  _151
REMARK   66  A    between atoms: _151  and  _152
REMARK   67  A    between atoms: _154  and  _156
REMARK   68  A    between atoms: _156  and  _157
REMARK   69  A    between atoms: _159  and  _161
REMARK   70  A    between atoms: _161  and  _162
REMARK   71  A    between atoms: _161  and  _164
REMARK   72  A    between atoms: _164  and  _165
REMARK   73  A    between atoms: _171  and  _173
REMARK   74  A    between atoms: _173  and  _174
REMARK   75  A    between atoms: _173  and  _176
REMARK   76  A    between atoms: _176  and  _177
REMARK   77  A    between atoms: _180  and  _182
REMARK   78  A    between atoms: _182  and  _183
REMARK   79  A    between atoms: _182  and  _185
REMARK   80  A    between atoms: _188  and  _190
REMARK   81  A    between atoms: _190  and  _191
REMARK   82  A    between atoms: _190  and  _193
REMARK   83  A    between atoms: _193  and  _194
REMARK   84  A    between atoms: _198  and  _199
REMARK   85  A    between atoms: _204  and  _206
REMARK   86  A    between atoms: _206  and  _207
REMARK   87  A    between atoms: _206  and  _209
REMARK   88  A    between atoms: _209  and  _210
REMARK   89  A    between atoms: _214  and  _215
REMARK   90  A    between atoms: _220  and  _222
REMARK   91  A    between atoms: _222  and  _223
REMARK   92  A    between atoms: _222  and  _225
REMARK   93  A    between atoms: _228  and  _230
REMARK   94  A    between atoms: _230  and  _231
REMARK   95  A    between atoms: _230  and  _233
REMARK   96  A    between atoms: _233  and  _234
REMARK   97  A    between atoms: _239  and  _241
REMARK   98  A    between atoms: _241  and  _242
REMARK   99  A    between atoms: _241  and  _244
REMARK  100  A    between atoms: _244  and  _245
REMARK  101  A    between atoms: _248  and  _250
REMARK  102  A    between atoms: _250  and  _251
REMARK  103  A    between atoms: _250  and  _253
REMARK  104  A    between atoms: _253  and  _254
REMARK  105  A    between atoms: _257  and  _259
REMARK  106  A    between atoms: _259  and  _260
REMARK  107  A    between atoms: _262  and  _264
REMARK  108  A    between atoms: _264  and  _265
REMARK  109  A    between atoms: _264  and  _267
REMARK  110  A    between atoms: _267  and  _268
REMARK  111  A    between atoms: _268  and  _269
REMARK  112  A    between atoms: _269  and  _270
REMARK  113  A    between atoms: _279  and  _281
REMARK  114  A    between atoms: _281  and  _282
REMARK  115  A    between atoms: _281  and  _284
REMARK  116  A    between atoms: _284  and  _285
REMARK  117  A    between atoms: _290  and  _292
REMARK  118  A    between atoms: _292  and  _293
REMARK  119  A    between atoms: _292  and  _295
REMARK  120  A    between atoms: _295  and  _296
REMARK  121  A    between atoms: _296  and  _297
REMARK  122  A    between atoms: _297  and  _298
REMARK  123  A    between atoms: _308  and  _309
REMARK  124  A    between atoms: _314  and  _316
REMARK  125  A    between atoms: _316  and  _317
REMARK  126  A    between atoms: _316  and  _319
REMARK  127  A    between atoms: _319  and  _320
REMARK  128  A    between atoms: _323  and  _325
REMARK  129  A    between atoms: _325  and  _326
REMARK  130  A    between atoms: _325  and  _328
REMARK  131  A    between atoms: _328  and  _329
REMARK  132  A    between atoms: _332  and  _334
REMARK  133  A    between atoms: _334  and  _335
REMARK  134  A    between atoms: _334  and  _337
REMARK  135  A    between atoms: _337  and  _338
REMARK  136  A    between atoms: _341  and  _343
REMARK  137  A    between atoms: _343  and  _344
REMARK  138  A    between atoms: _343  and  _346
REMARK  139  A    between atoms: _346  and  _347
REMARK  140  A    between atoms: _350  and  _352
REMARK  141  A    between atoms: _352  and  _353
REMARK  142  A    between atoms: _352  and  _355
REMARK  143  A    between atoms: _355  and  _356
REMARK  144  A    between atoms: _359  and  _361
REMARK  145  A    between atoms: _361  and  _362
REMARK  146  A    between atoms: _364  and  _366
REMARK  147  A    between atoms: _366  and  _367
REMARK  148  A    between atoms: _370  and  _372
REMARK  149  A    between atoms: _372  and  _373
REMARK  150  A    between atoms: _372  and  _375
REMARK  151  A    between atoms: _375  and  _376
REMARK  152  A    between atoms: _379  and  _381
REMARK  153  A    between atoms: _381  and  _382
REMARK  154  A    between atoms: _381  and  _384
REMARK  155  A    between atoms: _384  and  _385
REMARK  156  A    between atoms: _388  and  _390
REMARK  157  A    between atoms: _390  and  _391
REMARK  158  A    between atoms: _390  and  _393
REMARK  159  A    between atoms: _393  and  _394
REMARK  160  A    between atoms: _397  and  _399
REMARK  161  A    between atoms: _399  and  _400
REMARK  162  A    between atoms: _399  and  _402
REMARK  163  A    between atoms: _405  and  _407
REMARK  164  A    between atoms: _407  and  _408
REMARK  165  A    between atoms: _407  and  _410
REMARK  166  A    between atoms: _410  and  _411
REMARK  167  A    between atoms: _411  and  _412
REMARK  168  A    between atoms: _412  and  _413
REMARK  169  A    between atoms: _413  and  _414
REMARK  170  A    between atoms: _418  and  _420
REMARK  171  A    between atoms: _420  and  _421
REMARK  172  A    between atoms: _420  and  _423
REMARK  173  A    between atoms: _423  and  _424
REMARK  174  A    between atoms: _424  and  _425
REMARK  175  A    between atoms: _427  and  _429
REMARK  176  A    between atoms: _429  and  _430
REMARK  177  A    between atoms: _429  and  _432
REMARK  178  A    between atoms: _432  and  _433
REMARK  179  A    between atoms: _436  and  _438
REMARK  180  A    between atoms: _438  and  _439
REMARK  181  A    between atoms: _441  and  _443
REMARK  182  A    between atoms: _443  and  _444
REMARK  183  A    between atoms: _446  and  _448
REMARK  184  A    between atoms: _448  and  _449
REMARK  185  A    between atoms: _448  and  _451
REMARK  186  A    between atoms: _454  and  _456
REMARK  187  A    between atoms: _456  and  _457
REMARK  188  A    between atoms: _459  and  _461
REMARK  189  A    between atoms: _461  and  _462
REMARK  190  A    between atoms: _464  and  _466
REMARK  191  A    between atoms: _466  and  _467
REMARK  192  A    between atoms: _466  and  _469
REMARK  193  A    between atoms: _469  and  _470
REMARK  194  A    between atoms: _476  and  _478
REMARK  195  A    between atoms: _478  and  _479
REMARK  196  A    between atoms: _478  and  _481
REMARK  197  A    between atoms: _481  and  _482
REMARK  198  A    between atoms: _485  and  _487
REMARK  199  A    between atoms: _487  and  _488
REMARK  200  A    between atoms: _487  and  _490
REMARK  201  A    between atoms: _493  and  _495
REMARK  202  A    between atoms: _495  and  _496
REMARK  203  A    between atoms: _495  and  _498
REMARK  204  A    between atoms: _498  and  _499
REMARK  205  A    between atoms: _503  and  _504
REMARK  206  A    between atoms: _509  and  _511
REMARK  207  A    between atoms: _511  and  _512
REMARK  208  A    between atoms: _511  and  _514
REMARK  209  A    between atoms: _514  and  _515
REMARK  210  A    between atoms: _519  and  _520
REMARK  211  A    between atoms: _525  and  _527
REMARK  212  A    between atoms: _527  and  _528
REMARK  213  A    between atoms: _527  and  _530
REMARK  214  A    between atoms: _533  and  _535
REMARK  215  A    between atoms: _535  and  _536
REMARK  216  A    between atoms: _535  and  _538
REMARK  217  A    between atoms: _538  and  _539
REMARK  218  A    between atoms: _544  and  _546
REMARK  219  A    between atoms: _546  and  _547
REMARK  220  A    between atoms: _546  and  _549
REMARK  221  A    between atoms: _549  and  _550
REMARK  222  A    between atoms: _553  and  _555
REMARK  223  A    between atoms: _555  and  _556
REMARK  224  A    between atoms: _555  and  _558
REMARK  225  A    between atoms: _558  and  _559
REMARK  226  A    between atoms: _562  and  _564
REMARK  227  A    between atoms: _564  and  _565
REMARK  228  A    between atoms: _567  and  _569
REMARK  229  A    between atoms: _569  and  _570
REMARK  230  A    between atoms: _569  and  _572
REMARK  231  A    between atoms: _572  and  _573
REMARK  232  A    between atoms: _573  and  _574
REMARK  233  A    between atoms: _574  and  _575
REMARK                            x       y       z     vdW  Elec       q    Type
REMARK                         _______ _______ _______ _____ _____    ______ ____
ROOT
ATOM      1  CA  LEU A   1      21.468  30.437   6.471  0.00  0.00    +0.133 C 
ENDROOT
BRANCH   1   2
ATOM      2  N   LEU A   1      20.689  31.597   6.822  0.00  0.00    -0.239 NA
ATOM      3  H   LEU A   1      19.991  31.521   7.590  0.00  0.00    +0.142 HD
ENDBRANCH   1   2
BRANCH   1   4
ATOM      4  C   LEU A   1      20.582  29.527   5.642  0.00  0.00    +0.224 C 
ATOM      5  O   LEU A   1      19.388  29.373   5.955  0.00  0.00    -0.287 OA
ENDBRANCH   1   4
BRANCH   1   6
ATOM      6  CB  LEU A   1      21.905  29.700   7.741  0.00  0.00    +0.025 C 
BRANCH   6   7
ATOM      7  CG  LEU A   1      22.615  30.563   8.769  0.00  0.00    +0.002 C 
ATOM      8  CD2 LEU A   1      23.016  29.720   9.967  0.00  0.00    +0.000 C 
ATOM      9  CD1 LEU A   1      23.793  31.302   8.157  0.00  0.00    +0.000 C 
ENDBRANCH   6   7
ENDBRANCH   1   6
TORSDOF 4
REMARK  Name = ../refined-set-2016/3cyx/3cyx_pocket.pdb
REMARK  233 active torsions:
REMARK  status: ('A' for Active; 'I' for Inactive)
REMARK    1  A    between atoms: _1  and  _3
REMARK    2  A    between atoms: _3  and  _4
REMARK    3  A    between atoms: _3  and  _6
REMARK    4  A    between atoms: _6  and  _7
REMARK    5  A    between atoms: _7  and  _8
REMARK    6  A    between atoms: _8  and  _9
REMARK    7  A    between atoms: _18  and  _20
REMARK    8  A    between atoms: _20  and  _21
REMARK    9  A    between atoms: _20  and  _23
REMARK   10  A    between atoms: _23  and  _24
REMARK   11  A    between atoms: _27  and  _29
REMARK   12  A    between atoms: _29  and  _30
REMARK   13  A    between atoms: _29  and  _32
REMARK   14  A    between atoms: _32  and  _33
REMARK   15  A    between atoms: _36  and  _38
REMARK   16  A    between atoms: _38  and  _39
REMARK   17  A    between atoms: _38  and  _41
REMARK   18  A    between atoms: _41  and  _42
REMARK   19  A    between atoms: _45  and  _47
REMARK   20  A    between atoms: _47  and  _48
REMARK   21  A    between atoms: _47  and  _50
REMARK   22  A    between atoms: _50  and  _51
REMARK   23  A    between atoms: _54  and  _56
REMARK   24  A    between atoms: _56  and  _57
REMARK   25  A    between atoms: _59  and  _61
REMARK   26  A    between atoms: _61  and  _62
REMARK   27  A    between atoms: _65  and  _67
REMARK   28  A    between atoms: _67  and  _68
REMARK   29  A    between atoms: _67  and  _70
REMARK   30  A    between atoms: _70  and  _71
REMARK   31  A    between atoms: _74  and  _76
REMARK   32  A    between atoms: _76  and  _77
REMARK   33  A    between atoms: _76  and  _79
REMARK   34  A    between atoms: _79  and  _80
REMARK   35  A    between atoms: _83  and  _85
REMARK   36  A    between atoms: _85  and  _86
REMARK   37  A    between atoms: _85  and  _88
REMARK   38  A    between atoms: _88  and  _89
REMARK   39  A    between atoms: _92  and  _94
REMARK   40  A    between atoms: _94  and  _95
REMARK   41  A    between atoms: _94  and  _97
REMARK   42  A    between atoms: _100  and  _102
REMARK   43  A    between atoms: _102  and  _103
REMARK   44  A    between atoms: _102  and  _105
REMARK   45  A    between atoms: _105  and  _106
REMARK   46  A    between atoms: _106  and  _107
REMARK   47  A    between atoms: _107  and  _108
REMARK   48  A    between atoms: _108  and  _109
REMARK   49  A    between atoms: _113  and  _115
REMARK   50  A    between atoms: _115  and  _116
REMARK   51  A    between atoms: _115  and  _118
REMARK   52  A    between atoms: _118  and  _119
REMARK   53  A    between atoms: _119  and  _120
REMARK   54  A    between atoms: _122  and  _124
REMARK   55  A    between atoms: _124  and  _125
REMARK   56  A    between atoms: _124  and  _127
REMARK   57  A    between atoms: _127  and  _128
REMARK   58  A    between atoms: _131  and  _133
REMARK   59  A    between atoms: _133  and  _134
REMARK   60  A    between atoms: _136  and  _138
REMARK   61  A    between atoms: _138  and  _139
REMARK   62  A    between atoms: _141  and  _143
REMARK   63  A    between atoms: _143  and  _144
REMARK   64  A    between atoms: _143  and  _146
REMARK   65  A    between atoms: _149  and  _151
REMARK   66  A    between atoms: _151  and  _152
REMARK   67  A    between atoms: _154  and  _156
REMARK   68  A    between atoms: _156  and  _157
REMARK   69  A    between atoms: _159  and  _161
REMARK   70  A    between atoms: _161  and  _162
REMARK   71  A    between atoms: _161  and  _164
REMARK   72  A    between atoms: _164  and  _165
REMARK   73  A    between atoms: _171  and  _173
REMARK   74  A    between atoms: _173  and  _174
REMARK   75  A    between atoms: _173  and  _176
REMARK   76  A    between atoms: _176  and  _177
REMARK   77  A    between atoms: _180  and  _182
REMARK   78  A    between atoms: _182  and  _183
REMARK   79  A    between atoms: _182  and  _185
REMARK   80  A    between atoms: _188  and  _190
REMARK   81  A    between atoms: _190  and  _191
REMARK   82  A    between atoms: _190  and  _193
REMARK   83  A    between atoms: _193  and  _194
REMARK   84  A    between atoms: _198  and  _199
REMARK   85  A    between atoms: _204  and  _206
REMARK   86  A    between atoms: _206  and  _207
REMARK   87  A    between atoms: _206  and  _209
REMARK   88  A    between atoms: _209  and  _210
REMARK   89  A    between atoms: _214  and  _215
REMARK   90  A    between atoms: _220  and  _222
REMARK   91  A    between atoms: _222  and  _223
REMARK   92  A    between atoms: _222  and  _225
REMARK   93  A    between atoms: _228  and  _230
REMARK   94  A    between atoms: _230  and  _231
REMARK   95  A    between atoms: _230  and  _233
REMARK   96  A    between atoms: _233  and  _234
REMARK   97  A    between atoms: _239  and  _241
REMARK   98  A    between atoms: _241  and  _242
REMARK   99  A    between atoms: _241  and  _244
REMARK  100  A    between atoms: _244  and  _245
REMARK  101  A    between atoms: _248  and  _250
REMARK  102  A    between atoms: _250  and  _251
REMARK  103  A    between atoms: _250  and  _253
REMARK  104  A    between atoms: _253  and  _254
REMARK  105  A    between atoms: _257  and  _259
REMARK  106  A    between atoms: _259  and  _260
REMARK  107  A    between atoms: _262  and  _264
REMARK  108  A    between atoms: _264  and  _265
REMARK  109  A    between atoms: _264  and  _267
REMARK  110  A    between atoms: _267  and  _268
REMARK  111  A    between atoms: _268  and  _269
REMARK  112  A    between atoms: _269  and  _270
REMARK  113  A    between atoms: _279  and  _281
REMARK  114  A    between atoms: _281  and  _282
REMARK  115  A    between atoms: _281  and  _284
REMARK  116  A    between atoms: _284  and  _285
REMARK  117  A    between atoms: _290  and  _292
REMARK  118  A    between atoms: _292  and  _293
REMARK  119  A    between atoms: _292  and  _295
REMARK  120  A    between atoms: _295  and  _296
REMARK  121  A    between atoms: _296  and  _297
REMARK  122  A    between atoms: _297  and  _298
REMARK  123  A    between atoms: _308  and  _309
REMARK  124  A    between atoms: _314  and  _316
REMARK  125  A    between atoms: _316  and  _317
REMARK  126  A    between atoms: _316  and  _319
REMARK  127  A    between atoms: _319  and  _320
REMARK  128  A    between atoms: _323  and  _325
REMARK  129  A    between atoms: _325  and  _326
REMARK  130  A    between atoms: _325  and  _328
REMARK  131  A    between atoms: _328  and  _329
REMARK  132  A    between atoms: _332  and  _334
REMARK  133  A    between atoms: _334  and  _335
REMARK  134  A    between atoms: _334  and  _337
REMARK  135  A    between atoms: _337  and  _338
REMARK  136  A    between atoms: _341  and  _343
REMARK  137  A    between atoms: _343  and  _344
REMARK  138  A    between atoms: _343  and  _346
REMARK  139  A    between atoms: _346  and  _347
REMARK  140  A    between atoms: _350  and  _352
REMARK  141  A    between atoms: _352  and  _353
REMARK  142  A    between atoms: _352  and  _355
REMARK  143  A    between atoms: _355  and  _356
REMARK  144  A    between atoms: _359  and  _361
REMARK  145  A    between atoms: _361  and  _362
REMARK  146  A    between atoms: _364  and  _366
REMARK  147  A    between atoms: _366  and  _367
REMARK  148  A    between atoms: _370  and  _372
REMARK  149  A    between atoms: _372  and  _373
REMARK  150  A    between atoms: _372  and  _375
REMARK  151  A    between atoms: _375  and  _376
REMARK  152  A    between atoms: _379  and  _381
REMARK  153  A    between atoms: _381  and  _382
REMARK  154  A    between atoms: _381  and  _384
REMARK  155  A    between atoms: _384  and  _385
REMARK  156  A    between atoms: _388  and  _390
REMARK  157  A    between atoms: _390  and  _391
REMARK  158  A    between atoms: _390  and  _393
REMARK  159  A    between atoms: _393  and  _394
REMARK  160  A    between atoms: _397  and  _399
REMARK  161  A    between atoms: _399  and  _400
REMARK  162  A    between atoms: _399  and  _402
REMARK  163  A    between atoms: _405  and  _407
REMARK  164  A    between atoms: _407  and  _408
REMARK  165  A    between atoms: _407  and  _410
REMARK  166  A    between atoms: _410  and  _411
REMARK  167  A    between atoms: _411  and  _412
REMARK  168  A    between atoms: _412  and  _413
REMARK  169  A    between atoms: _413  and  _414
REMARK  170  A    between atoms: _418  and  _420
REMARK  171  A    between atoms: _420  and  _421
REMARK  172  A    between atoms: _420  and  _423
REMARK  173  A    between atoms: _423  and  _424
REMARK  174  A    between atoms: _424  and  _425
REMARK  175  A    between atoms: _427  and  _429
REMARK  176  A    between atoms: _429  and  _430
REMARK  177  A    between atoms: _429  and  _432
REMARK  178  A    between atoms: _432  and  _433
REMARK  179  A    between atoms: _436  and  _438
REMARK  180  A    between atoms: _438  and  _439
REMARK  181  A    between atoms: _441  and  _443
REMARK  182  A    between atoms: _443  and  _444
REMARK  183  A    between atoms: _446  and  _448
REMARK  184  A    between atoms: _448  and  _449
REMARK  185  A    between atoms: _448  and  _451
REMARK  186  A    between atoms: _454  and  _456
REMARK  187  A    between atoms: _456  and  _457
REMARK  188  A    between atoms: _459  and  _461
REMARK  189  A    between atoms: _461  and  _462
REMARK  190  A    between atoms: _464  and  _466
REMARK  191  A    between atoms: _466  and  _467
REMARK  192  A    between atoms: _466  and  _469
REMARK  193  A    between atoms: _469  and  _470
REMARK  194  A    between atoms: _476  and  _478
REMARK  195  A    between atoms: _478  and  _479
REMARK  196  A    between atoms: _478  and  _481
REMARK  197  A    between atoms: _481  and  _482
REMARK  198  A    between atoms: _485  and  _487
REMARK  199  A    between atoms: _487  and  _488
REMARK  200  A    between atoms: _487  and  _490
REMARK  201  A    between atoms: _493  and  _495
REMARK  202  A    between atoms: _495  and  _496
REMARK  203  A    between atoms: _495  and  _498
REMARK  204  A    between atoms: _498  and  _499
REMARK  205  A    between atoms: _503  and  _504
REMARK  206  A    between atoms: _509  and  _511
REMARK  207  A    between atoms: _511  and  _512
REMARK  208  A    between atoms: _511  and  _514
REMARK  209  A    between atoms: _514  and  _515
REMARK  210  A    between atoms: _519  and  _520
REMARK  211  A    between atoms: _525  and  _527
REMARK  212  A    between atoms: _527  and  _528
REMARK  213  A    between atoms: _527  and  _530
REMARK  214  A    between atoms: _533  and  _535
REMARK  215  A    between atoms: _535  and  _536
REMARK  216  A    between atoms: _535  and  _538
REMARK  217  A    between atoms: _538  and  _539
REMARK  218  A    between atoms: _544  and  _546
REMARK  219  A    between atoms: _546  and  _547
REMARK  220  A    between atoms: _546  and  _549
REMARK  221  A    between atoms: _549  and  _550
REMARK  222  A    between atoms: _553  and  _555
REMARK  223  A    between atoms: _555  and  _556
REMARK  224  A    between atoms: _555  and  _558
REMARK  225  A    between atoms: _558  and  _559
REMARK  226  A    between atoms: _562  and  _564
REMARK  227  A    between atoms: _564  and  _565
REMARK  228  A    between atoms: _567  and  _569
REMARK  229  A    between atoms: _569  and  _570
REMARK  230  A    between atoms: _569  and  _572
REMARK  231  A    between atoms: _572  and  _573
REMARK  232  A    between atoms: _573  and  _574
REMARK  233  A    between atoms: _574  and  _575
REMARK                            x       y       z     vdW  Elec       q    Type
REMARK                         _______ _______ _______ _____ _____    ______ ____
ROOT
ATOM      1  CA  ILE A   6      13.288  28.225  11.461  0.00  0.00    +0.149 C 
ENDROOT
BRANCH   1   2
ATOM      2  C   ILE A   6      13.673  29.676  11.408  0.00  0.00    +0.241 C 
ATOM      3  N   ILE A   7      12.890  30.485  12.137  0.00  0.00    -0.297 N 
ATOM      4  H   ILE A   7      12.015  30.095  12.543  0.00  0.00    +0.150 HD
ATOM      5  O   ILE A   6      14.639  30.095  10.764  0.00  0.00    -0.273 OA
BRANCH   3   6
ATOM      6  CA  ILE A   7      13.211  31.898  12.389  0.00  0.00    +0.149 C 
BRANCH   6   7
ATOM      7  C   ILE A   7      13.796  31.950  13.790  0.00  0.00    +0.241 C 
ATOM      8  O   ILE A   7      13.101  31.708  14.781  0.00  0.00    -0.273 OA
ATOM      9  N   GLY A   8      15.095  32.240  13.850  0.00  0.00    -0.295 N 
ATOM     10  H   GLY A   8      15.607  32.444  12.968  0.00  0.00    +0.150 HD
BRANCH   9  11
ATOM     11  CA  GLY A   8      15.810  32.279  15.095  0.00  0.00    +0.176 C 
BRANCH  11  12
ATOM     12  C   GLY A   8      15.918  33.701  15.643  0.00  0.00    +0.243 C 
ATOM     13  N   ARG A   9      16.646  33.759  16.774  0.00  0.00    -0.297 N 
ATOM     14  H   ARG A   9      17.192  32.933  17.092  0.00  0.00    +0.150 HD
ATOM     15  O   GLY A   8      15.377  34.669  15.148  0.00  0.00    -0.273 OA
BRANCH  13  16
ATOM     16  CA  ARG A   9      16.658  34.990  17.544  0.00  0.00    +0.149 C 
BRANCH  16  17
ATOM     17  C   ARG A   9      17.209  36.177  16.797  0.00  0.00    +0.241 C 
ATOM     18  O   ARG A   9      16.817  37.324  17.043  0.00  0.00    -0.273 OA
ATOM     19  N   ASN A  10      18.109  35.978  15.828  0.00  0.00    -0.298 N 
ATOM     20  H   ASN A  10      18.428  35.012  15.610  0.00  0.00    +0.150 HD
BRANCH  19  21
ATOM     21  CA  ASN A  10      18.643  37.095  15.080  0.00  0.00    +0.146 C 
BRANCH  21  22
ATOM     22  C   ASN A  10      17.595  37.921  14.344  0.00  0.00    +0.227 C 
ATOM     23  O   ASN A  10      17.811  39.107  14.123  0.00  0.00    -0.286 OA
ENDBRANCH  21  22
BRANCH  21  24
ATOM     24  CB  ASN A  10      19.708  36.605  14.108  0.00  0.00    +0.112 C 
BRANCH  24  25
ATOM     25  CG  ASN A  10      19.193  35.848  12.900  0.00  0.00    +0.222 C 
ATOM     26  OD1 ASN A  10      18.446  34.880  13.057  0.00  0.00    -0.275 OA
ATOM     27  ND2 ASN A  10      19.556  36.311  11.722  0.00  0.00    -0.329 N 
ATOM     28 HD21 ASN A  10      20.190  37.133  11.659  0.00  0.00    +0.145 HD
ATOM     29 HD22 ASN A  10      19.209  35.855  10.854  0.00  0.00    +0.145 HD
ENDBRANCH  24  25
ENDBRANCH  21  24
ENDBRANCH  19  21
ENDBRANCH  16  17
BRANCH  16  30
ATOM     30  CB  ARG A   9      17.461  34.798  18.821  0.00  0.00    +0.033 C 
BRANCH  30  31
ATOM     31  CG  ARG A   9      16.807  33.848  19.817  0.00  0.00    +0.045 C 
BRANCH  31  32
ATOM     32  CD  ARG A   9      17.531  33.820  21.161  0.00  0.00    +0.174 C 
BRANCH  32  33
ATOM     33  NE  ARG A   9      18.933  33.370  20.985  0.00  0.00    -0.265 N 
ATOM     34  HE  ARG A   9      19.076  32.342  20.920  0.00  0.00    +0.259 HD
ATOM     35  CZ  ARG A   9      20.015  34.106  20.901  0.00  0.00    +0.342 C 
ATOM     36  NH2 ARG A   9      20.005  35.431  21.044  0.00  0.00    -0.292 N 
ATOM     37 HH21 ARG A   9      19.110  35.927  21.231  0.00  0.00    +0.255 HD
ATOM     38 HH22 ARG A   9      20.892  35.969  20.968  0.00  0.00    +0.255 HD
ATOM     39  NH1 ARG A   9      21.191  33.498  20.703  0.00  0.00    -0.292 N 
ATOM     40 HH11 ARG A   9      22.062  34.061  20.633  0.00  0.00    +0.255 HD
ATOM     41 HH12 ARG A   9      21.233  32.462  20.619  0.00  0.00    +0.255 HD
ENDBRANCH  32  33
ENDBRANCH  31  32
ENDBRANCH  30  31
ENDBRANCH  16  30
ENDBRANCH  13  16
ENDBRANCH  11  12
ENDBRANCH   9  11
ENDBRANCH   6   7
BRANCH   6  42
ATOM     42  CB  ILE A   7      11.980  32.818  12.310  0.00  0.00    +0.027 C 
ATOM     43  CG2 ILE A   7      12.324  34.272  12.564  0.00  0.00    +0.002 C 
BRANCH  42  44
ATOM     44  CG1 ILE A   7      11.216  32.684  11.002  0.00  0.00    +0.002 C 
ATOM     45  CD1 ILE A   7      12.079  32.877   9.752  0.00  0.00    +0.000 C 
ENDBRANCH  42  44
ENDBRANCH   6  42
ENDBRANCH   3   6
ENDBRANCH   1   2
BRANCH   1  48
ATOM     46  C   ASN A   5      12.286  27.054   9.593  0.00  0.00    +0.241 C 
ATOM     47  O   ASN A   5      11.205  26.922  10.160  0.00  0.00    -0.273 OA
ATOM     48  N   ILE A   6      13.308  27.682  10.116  0.00  0.00    -0.297 N 
ATOM     49  H   ILE A   6      14.169  27.796   9.544  0.00  0.00    +0.150 HD
BRANCH  46  50
ATOM     50  CA  ASN A   5      12.464  26.428   8.224  0.00  0.00    +0.158 C 
BRANCH  50  53
ATOM     51  C   VAL A   4      12.598  24.055   8.914  0.00  0.00    +0.241 C 
ATOM     52  O   VAL A   4      13.716  24.257   9.419  0.00  0.00    -0.273 OA
ATOM     53  N   ASN A   5      11.968  25.037   8.292  0.00  0.00    -0.297 N 
ATOM     54  H   ASN A   5      11.067  24.817   7.821  0.00  0.00    +0.150 HD
BRANCH  51  55
ATOM     55  CA  VAL A   4      11.982  22.689   9.064  0.00  0.00    +0.149 C 
BRANCH  55  57
ATOM     56  C   PRO A   3      12.911  20.596   8.177  0.00  0.00    +0.241 C 
ATOM     57  N   VAL A   4      13.024  21.699   8.843  0.00  0.00    -0.297 N 
ATOM     58  H   VAL A   4      13.954  21.898   9.263  0.00  0.00    +0.150 HD
ATOM     59  O   PRO A   3      11.804  20.302   7.606  0.00  0.00    -0.273 OA
BRANCH  56  65
ATOM     60  C   THR A   2      15.861  21.162   7.363  0.00  0.00    +0.246 C 
ATOM     61  N   PRO A   3      15.442  20.290   8.266  0.00  0.00    -0.272 N 
ATOM     62  CD  PRO A   3      16.218  19.756   9.425  0.00  0.00    +0.094 C 
ATOM     63  CG  PRO A   3      15.465  18.500   9.689  0.00  0.00    +0.024 C 
ATOM     64  CB  PRO A   3      14.058  18.689   9.275  0.00  0.00    +0.031 C 
ATOM     65  CA  PRO A   3      14.121  19.662   8.091  0.00  0.00    +0.152 C 
ATOM     66  O   THR A   2      15.192  21.438   6.366  0.00  0.00    -0.273 OA
BRANCH  60  67
ATOM     67  CA  THR A   2      17.193  21.864   7.589  0.00  0.00    +0.176 C 
BRANCH  67  70
ATOM     68  C   PRO A   1      18.606  20.864   5.887  0.00  0.00    +0.239 C 
ATOM     69  O   PRO A   1      18.646  19.842   6.562  0.00  0.00    -0.274 OA
ATOM     70  N   THR A   2      17.957  21.901   6.347  0.00  0.00    -0.295 N 
ATOM     71  H   THR A   2      17.986  22.788   5.806  0.00  0.00    +0.150 HD
BRANCH  68  73
ATOM     72  N   PRO A   1      20.148  22.115   4.388  0.00  0.00    -0.210 NA
ATOM     73  CA  PRO A   1      19.199  21.003   4.517  0.00  0.00    +0.149 C 
ATOM     74  CB  PRO A   1      20.075  19.798   4.152  0.00  0.00    +0.028 C 
ATOM     75  CG  PRO A   1      21.435  20.200   4.639  0.00  0.00    +0.021 C 
ATOM     76  CD  PRO A   1      21.549  21.666   4.385  0.00  0.00    +0.089 C 
ENDBRANCH  68  73
ENDBRANCH  67  70
BRANCH  67  77
ATOM     77  CB  THR A   2      16.958  23.261   8.160  0.00  0.00    +0.137 C 
ATOM     78  CG2 THR A   2      16.248  24.183   7.206  0.00  0.00    +0.034 C 
BRANCH  77  79
ATOM     79  OG1 THR A   2      16.216  23.104   9.368  0.00  0.00    -0.382 OA
ATOM     80  HG1 THR A   2      15.354  22.659   9.169  0.00  0.00    +0.210 HD
ENDBRANCH  77  79
ENDBRANCH  67  77
ENDBRANCH  60  67
ENDBRANCH  56  65
ENDBRANCH  55  57
BRANCH  55  81
ATOM     81  CB  VAL A   4      11.354  22.541  10.471  0.00  0.00    +0.027 C 
ATOM     82  CG2 VAL A   4      10.392  23.637  10.821  0.00  0.00    +0.002 C 
ATOM     83  CG1 VAL A   4      10.710  21.146  10.572  0.00  0.00    +0.002 C 
ENDBRANCH  55  81
ENDBRANCH  51  55
ENDBRANCH  50  53
BRANCH  50  84
ATOM     84  CB  ASN A   5      11.651  27.238   7.214  0.00  0.00    +0.114 C 
BRANCH  84  85
ATOM     85  CG  ASN A   5      11.723  26.685   5.826  0.00  0.00    +0.222 C 
ATOM     86  OD1 ASN A   5      12.738  26.174   5.379  0.00  0.00    -0.275 OA
ATOM     87  ND2 ASN A   5      10.621  26.767   5.065  0.00  0.00    -0.329 N 
ATOM     88 HD21 ASN A   5       9.757  27.202   5.446  0.00  0.00    +0.145 HD
ATOM     89 HD22 ASN A   5      10.631  26.395   4.094  0.00  0.00    +0.145 HD
ENDBRANCH  84  85
ENDBRANCH  50  84
ENDBRANCH  46  50
ENDBRANCH   1  48
BRANCH   1  90
ATOM     90  CB  ILE A   6      14.280  27.458  12.357  0.00  0.00    +0.027 C 
ATOM     91  CG2 ILE A   6      14.858  28.406  13.381  0.00  0.00    +0.002 C 
BRANCH  90  92
ATOM     92  CG1 ILE A   6      13.753  26.217  13.076  0.00  0.00    +0.002 C 
ATOM     93  CD1 ILE A   6      12.936  25.298  12.231  0.00  0.00    +0.000 C 
ENDBRANCH  90  92
ENDBRANCH   1  90
TORSDOF 33
REMARK  Name = ../refined-set-2016/3cyx/3cyx_pocket.pdb
REMARK  233 active torsions:
REMARK  status: ('A' for Active; 'I' for Inactive)
REMARK    1  A    between atoms: _1  and  _3
REMARK    2  A    between atoms: _3  and  _4
REMARK    3  A    between atoms: _3  and  _6
REMARK    4  A    between atoms: _6  and  _7
REMARK    5  A    between atoms: _7  and  _8
REMARK    6  A    between atoms: _8  and  _9
REMARK    7  A    between atoms: _18  and  _20
REMARK    8  A    between atoms: _20  and  _21
REMARK    9  A    between atoms: _20  and  _23
REMARK   10  A    between atoms: _23  and  _24
REMARK   11  A    between atoms: _27  and  _29
REMARK   12  A    between atoms: _29  and  _30
REMARK   13  A    between atoms: _29  and  _32
REMARK   14  A    between atoms: _32  and  _33
REMARK   15  A    between atoms: _36  and  _38
REMARK   16  A    between atoms: _38  and  _39
REMARK   17  A    between atoms: _38  and  _41
REMARK   18  A    between atoms: _41  and  _42
REMARK   19  A    between atoms: _45  and  _47
REMARK   20  A    between atoms: _47  and  _48
REMARK   21  A    between atoms: _47  and  _50
REMARK   22  A    between atoms: _50  and  _51
REMARK   23  A    between atoms: _54  and  _56
REMARK   24  A    between atoms: _56  and  _57
REMARK   25  A    between atoms: _59  and  _61
REMARK   26  A    between atoms: _61  and  _62
REMARK   27  A    between atoms: _65  and  _67
REMARK   28  A    between atoms: _67  and  _68
REMARK   29  A    between atoms: _67  and  _70
REMARK   30  A    between atoms: _70  and  _71
REMARK   31  A    between atoms: _74  and  _76
REMARK   32  A    between atoms: _76  and  _77
REMARK   33  A    between atoms: _76  and  _79
REMARK   34  A    between atoms: _79  and  _80
REMARK   35  A    between atoms: _83  and  _85
REMARK   36  A    between atoms: _85  and  _86
REMARK   37  A    between atoms: _85  and  _88
REMARK   38  A    between atoms: _88  and  _89
REMARK   39  A    between atoms: _92  and  _94
REMARK   40  A    between atoms: _94  and  _95
REMARK   41  A    between atoms: _94  and  _97
REMARK   42  A    between atoms: _100  and  _102
REMARK   43  A    between atoms: _102  and  _103
REMARK   44  A    between atoms: _102  and  _105
REMARK   45  A    between atoms: _105  and  _106
REMARK   46  A    between atoms: _106  and  _107
REMARK   47  A    between atoms: _107  and  _108
REMARK   48  A    between atoms: _108  and  _109
REMARK   49  A    between atoms: _113  and  _115
REMARK   50  A    between atoms: _115  and  _116
REMARK   51  A    between atoms: _115  and  _118
REMARK   52  A    between atoms: _118  and  _119
REMARK   53  A    between atoms: _119  and  _120
REMARK   54  A    between atoms: _122  and  _124
REMARK   55  A    between atoms: _124  and  _125
REMARK   56  A    between atoms: _124  and  _127
REMARK   57  A    between atoms: _127  and  _128
REMARK   58  A    between atoms: _131  and  _133
REMARK   59  A    between atoms: _133  and  _134
REMARK   60  A    between atoms: _136  and  _138
REMARK   61  A    between atoms: _138  and  _139
REMARK   62  A    between atoms: _141  and  _143
REMARK   63  A    between atoms: _143  and  _144
REMARK   64  A    between atoms: _143  and  _146
REMARK   65  A    between atoms: _149  and  _151
REMARK   66  A    between atoms: _151  and  _152
REMARK   67  A    between atoms: _154  and  _156
REMARK   68  A    between atoms: _156  and  _157
REMARK   69  A    between atoms: _159  and  _161
REMARK   70  A    between atoms: _161  and  _162
REMARK   71  A    between atoms: _161  and  _164
REMARK   72  A    between atoms: _164  and  _165
REMARK   73  A    between atoms: _171  and  _173
REMARK   74  A    between atoms: _173  and  _174
REMARK   75  A    between atoms: _173  and  _176
REMARK   76  A    between atoms: _176  and  _177
REMARK   77  A    between atoms: _180  and  _182
REMARK   78  A    between atoms: _182  and  _183
REMARK   79  A    between atoms: _182  and  _185
REMARK   80  A    between atoms: _188  and  _190
REMARK   81  A    between atoms: _190  and  _191
REMARK   82  A    between atoms: _190  and  _193
REMARK   83  A    between atoms: _193  and  _194
REMARK   84  A    between atoms: _198  and  _199
REMARK   85  A    between atoms: _204  and  _206
REMARK   86  A    between atoms: _206  and  _207
REMARK   87  A    between atoms: _206  and  _209
REMARK   88  A    between atoms: _209  and  _210
REMARK   89  A    between atoms: _214  and  _215
REMARK   90  A    between atoms: _220  and  _222
REMARK   91  A    between atoms: _222  and  _223
REMARK   92  A    between atoms: _222  and  _225
REMARK   93  A    between atoms: _228  and  _230
REMARK   94  A    between atoms: _230  and  _231
REMARK   95  A    between atoms: _230  and  _233
REMARK   96  A    between atoms: _233  and  _234
REMARK   97  A    between atoms: _239  and  _241
REMARK   98  A    between atoms: _241  and  _242
REMARK   99  A    between atoms: _241  and  _244
REMARK  100  A    between atoms: _244  and  _245
REMARK  101  A    between atoms: _248  and  _250
REMARK  102  A    between atoms: _250  and  _251
REMARK  103  A    between atoms: _250  and  _253
REMARK  104  A    between atoms: _253  and  _254
REMARK  105  A    between atoms: _257  and  _259
REMARK  106  A    between atoms: _259  and  _260
REMARK  107  A    between atoms: _262  and  _264
REMARK  108  A    between atoms: _264  and  _265
REMARK  109  A    between atoms: _264  and  _267
REMARK  110  A    between atoms: _267  and  _268
REMARK  111  A    between atoms: _268  and  _269
REMARK  112  A    between atoms: _269  and  _270
REMARK  113  A    between atoms: _279  and  _281
REMARK  114  A    between atoms: _281  and  _282
REMARK  115  A    between atoms: _281  and  _284
REMARK  116  A    between atoms: _284  and  _285
REMARK  117  A    between atoms: _290  and  _292
REMARK  118  A    between atoms: _292  and  _293
REMARK  119  A    between atoms: _292  and  _295
REMARK  120  A    between atoms: _295  and  _296
REMARK  121  A    between atoms: _296  and  _297
REMARK  122  A    between atoms: _297  and  _298
REMARK  123  A    between atoms: _308  and  _309
REMARK  124  A    between atoms: _314  and  _316
REMARK  125  A    between atoms: _316  and  _317
REMARK  126  A    between atoms: _316  and  _319
REMARK  127  A    between atoms: _319  and  _320
REMARK  128  A    between atoms: _323  and  _325
REMARK  129  A    between atoms: _325  and  _326
REMARK  130  A    between atoms: _325  and  _328
REMARK  131  A    between atoms: _328  and  _329
REMARK  132  A    between atoms: _332  and  _334
REMARK  133  A    between atoms: _334  and  _335
REMARK  134  A    between atoms: _334  and  _337
REMARK  135  A    between atoms: _337  and  _338
REMARK  136  A    between atoms: _341  and  _343
REMARK  137  A    between atoms: _343  and  _344
REMARK  138  A    between atoms: _343  and  _346
REMARK  139  A    between atoms: _346  and  _347
REMARK  140  A    between atoms: _350  and  _352
REMARK  141  A    between atoms: _352  and  _353
REMARK  142  A    between atoms: _352  and  _355
REMARK  143  A    between atoms: _355  and  _356
REMARK  144  A    between atoms: _359  and  _361
REMARK  145  A    between atoms: _361  and  _362
REMARK  146  A    between atoms: _364  and  _366
REMARK  147  A    between atoms: _366  and  _367
REMARK  148  A    between atoms: _370  and  _372
REMARK  149  A    between atoms: _372  and  _373
REMARK  150  A    between atoms: _372  and  _375
REMARK  151  A    between atoms: _375  and  _376
REMARK  152  A    between atoms: _379  and  _381
REMARK  153  A    between atoms: _381  and  _382
REMARK  154  A    between atoms: _381  and  _384
REMARK  155  A    between atoms: _384  and  _385
REMARK  156  A    between atoms: _388  and  _390
REMARK  157  A    between atoms: _390  and  _391
REMARK  158  A    between atoms: _390  and  _393
REMARK  159  A    between atoms: _393  and  _394
REMARK  160  A    between atoms: _397  and  _399
REMARK  161  A    between atoms: _399  and  _400
REMARK  162  A    between atoms: _399  and  _402
REMARK  163  A    between atoms: _405  and  _407
REMARK  164  A    between atoms: _407  and  _408
REMARK  165  A    between atoms: _407  and  _410
REMARK  166  A    between atoms: _410  and  _411
REMARK  167  A    between atoms: _411  and  _412
REMARK  168  A    between atoms: _412  and  _413
REMARK  169  A    between atoms: _413  and  _414
REMARK  170  A    between atoms: _418  and  _420
REMARK  171  A    between atoms: _420  and  _421
REMARK  172  A    between atoms: _420  and  _423
REMARK  173  A    between atoms: _423  and  _424
REMARK  174  A    between atoms: _424  and  _425
REMARK  175  A    between atoms: _427  and  _429
REMARK  176  A    between atoms: _429  and  _430
REMARK  177  A    between atoms: _429  and  _432
REMARK  178  A    between atoms: _432  and  _433
REMARK  179  A    between atoms: _436  and  _438
REMARK  180  A    between atoms: _438  and  _439
REMARK  181  A    between atoms: _441  and  _443
REMARK  182  A    between atoms: _443  and  _444
REMARK  183  A    between atoms: _446  and  _448
REMARK  184  A    between atoms: _448  and  _449
REMARK  185  A    between atoms: _448  and  _451
REMARK  186  A    between atoms: _454  and  _456
REMARK  187  A    between atoms: _456  and  _457
REMARK  188  A    between atoms: _459  and  _461
REMARK  189  A    between atoms: _461  and  _462
REMARK  190  A    between atoms: _464  and  _466
REMARK  191  A    between atoms: _466  and  _467
REMARK  192  A    between atoms: _466  and  _469
REMARK  193  A    between atoms: _469  and  _470
REMARK  194  A    between atoms: _476  and  _478
REMARK  195  A    between atoms: _478  and  _479
REMARK  196  A    between atoms: _478  and  _481
REMARK  197  A    between atoms: _481  and  _482
REMARK  198  A    between atoms: _485  and  _487
REMARK  199  A    between atoms: _487  and  _488
REMARK  200  A    between atoms: _487  and  _490
REMARK  201  A    between atoms: _493  and  _495
REMARK  202  A    between atoms: _495  and  _496
REMARK  203  A    between atoms: _495  and  _498
REMARK  204  A    between atoms: _498  and  _499
REMARK  205  A    between atoms: _503  and  _504
REMARK  206  A    between atoms: _509  and  _511
REMARK  207  A    between atoms: _511  and  _512
REMARK  208  A    between atoms: _511  and  _514
REMARK  209  A    between atoms: _514  and  _515
REMARK  210  A    between atoms: _519  and  _520
REMARK  211  A    between atoms: _525  and  _527
REMARK  212  A    between atoms: _527  and  _528
REMARK  213  A    between atoms: _527  and  _530
REMARK  214  A    between atoms: _533  and  _535
REMARK  215  A    between atoms: _535  and  _536
REMARK  216  A    between atoms: _535  and  _538
REMARK  217  A    between atoms: _538  and  _539
REMARK  218  A    between atoms: _544  and  _546
REMARK  219  A    between atoms: _546  and  _547
REMARK  220  A    between atoms: _546  and  _549
REMARK  221  A    between atoms: _549  and  _550
REMARK  222  A    between atoms: _553  and  _555
REMARK  223  A    between atoms: _555  and  _556
REMARK  224  A    between atoms: _555  and  _558
REMARK  225  A    between atoms: _558  and  _559
REMARK  226  A    between atoms: _562  and  _564
REMARK  227  A    between atoms: _564  and  _565
REMARK  228  A    between atoms: _567  and  _569
REMARK  229  A    between atoms: _569  and  _570
REMARK  230  A    between atoms: _569  and  _572
REMARK  231  A    between atoms: _572  and  _573
REMARK  232  A    between atoms: _573  and  _574
REMARK  233  A    between atoms: _574  and  _575
REMARK                            x       y       z     vdW  Elec       q    Type
REMARK                         _______ _______ _______ _____ _____    ______ ____
ROOT
ATOM      1  C   ARG A   1      18.755  33.072  25.856  0.00  0.00    +0.241 C 
ATOM      2  O   ARG A   1      19.196  33.557  26.933  0.00  0.00    -0.273 OA
ATOM      3  N   PRO A   2      17.528  32.626  25.743  0.00  0.00    -0.272 N 
ATOM      4  CA  PRO A   2      16.566  32.650  26.891  0.00  0.00    +0.152 C 
ATOM      5  CB  PRO A   2      15.215  32.585  26.195  0.00  0.00    +0.031 C 
ATOM      6  CG  PRO A   2      15.490  31.784  24.984  0.00  0.00    +0.024 C 
ATOM      7  CD  PRO A   2      16.847  32.243  24.497  0.00  0.00    +0.094 C 
ENDROOT
BRANCH   4   8
ATOM      8  C   PRO A   2      16.807  31.515  27.854  0.00  0.00    +0.241 C 
ATOM      9  N   LEU A   3      17.938  31.613  28.557  0.00  0.00    -0.298 N 
ATOM     10  H   LEU A   3      18.540  32.443  28.383  0.00  0.00    +0.150 HD
ATOM     11  O   PRO A   2      16.061  30.532  27.960  0.00  0.00    -0.273 OA
BRANCH   9  12
ATOM     12  CA  LEU A   3      18.389  30.658  29.538  0.00  0.00    +0.137 C 
BRANCH  12  13
ATOM     13  C   LEU A   3      17.803  30.997  30.909  0.00  0.00    +0.227 C 
ATOM     14  O   LEU A   3      17.855  32.166  31.319  0.00  0.00    -0.286 OA
ENDBRANCH  12  13
BRANCH  12  15
ATOM     15  CB  LEU A   3      19.907  30.624  29.581  0.00  0.00    +0.028 C 
BRANCH  15  16
ATOM     16  CG  LEU A   3      20.580  30.038  28.344  0.00  0.00    +0.002 C 
ATOM     17  CD2 LEU A   3      22.095  30.302  28.326  0.00  0.00    +0.000 C 
ATOM     18  CD1 LEU A   3      20.332  28.541  28.234  0.00  0.00    +0.000 C 
ENDBRANCH  15  16
ENDBRANCH  12  15
ENDBRANCH   9  12
ENDBRANCH   4   8
BRANCH   1  19
ATOM     19  CA  ARG A   1      19.683  33.037  24.640  0.00  0.00    +0.145 C 
BRANCH  19  20
ATOM     20  N   ARG A   1      20.436  34.268  24.506  0.00  0.00    -0.238 NA
ATOM     21  H   ARG A   1      21.476  34.240  24.520  0.00  0.00    +0.142 HD
ENDBRANCH  19  20
BRANCH  19  22
ATOM     22  CB  ARG A   1      20.633  31.873  24.764  0.00  0.00    +0.030 C 
BRANCH  22  23
ATOM     23  CG  ARG A   1      21.414  31.588  23.492  0.00  0.00    +0.045 C 
BRANCH  23  24
ATOM     24  CD  ARG A   1      22.319  30.366  23.705  0.00  0.00    +0.174 C 
BRANCH  24  25
ATOM     25  NE  ARG A   1      23.153  30.172  22.544  0.00  0.00    -0.265 N 
ATOM     26  CZ  ARG A   1      24.384  29.686  22.526  0.00  0.00    +0.342 C 
ATOM     27  NH2 ARG A   1      24.999  29.297  23.654  0.00  0.00    -0.292 N 
ATOM     28 HH21 ARG A   1      24.508  29.374  24.567  0.00  0.00    +0.255 HD
ATOM     29 HH22 ARG A   1      25.967  28.918  23.615  0.00  0.00    +0.255 HD
ATOM     30  NH1 ARG A   1      24.988  29.588  21.362  0.00  0.00    -0.292 N 
ATOM     31 HH11 ARG A   1      25.956  29.211  21.308  0.00  0.00    +0.255 HD
ATOM     32 HH12 ARG A   1      24.498  29.888  20.495  0.00  0.00    +0.255 HD
ATOM     33  HE  ARG A   1      22.745  30.442  21.626  0.00  0.00    +0.259 HD
ENDBRANCH  24  25
ENDBRANCH  23  24
ENDBRANCH  22  23
ENDBRANCH  19  22
ENDBRANCH   1  19
TORSDOF 11
REMARK  Name = ../refined-set-2016/3cyx/3cyx_pocket.pdb
REMARK  233 active torsions:
REMARK  status: ('A' for Active; 'I' for Inactive)
REMARK    1  A    between atoms: _1  and  _3
REMARK    2  A    between atoms: _3  and  _4
REMARK    3  A    between atoms: _3  and  _6
REMARK    4  A    between atoms: _6  and  _7
REMARK    5  A    between atoms: _7  and  _8
REMARK    6  A    between atoms: _8  and  _9
REMARK    7  A    between atoms: _18  and  _20
REMARK    8  A    between atoms: _20  and  _21
REMARK    9  A    between atoms: _20  and  _23
REMARK   10  A    between atoms: _23  and  _24
REMARK   11  A    between atoms: _27  and  _29
REMARK   12  A    between atoms: _29  and  _30
REMARK   13  A    between atoms: _29  and  _32
REMARK   14  A    between atoms: _32  and  _33
REMARK   15  A    between atoms: _36  and  _38
REMARK   16  A    between atoms: _38  and  _39
REMARK   17  A    between atoms: _38  and  _41
REMARK   18  A    between atoms: _41  and  _42
REMARK   19  A    between atoms: _45  and  _47
REMARK   20  A    between atoms: _47  and  _48
REMARK   21  A    between atoms: _47  and  _50
REMARK   22  A    between atoms: _50  and  _51
REMARK   23  A    between atoms: _54  and  _56
REMARK   24  A    between atoms: _56  and  _57
REMARK   25  A    between atoms: _59  and  _61
REMARK   26  A    between atoms: _61  and  _62
REMARK   27  A    between atoms: _65  and  _67
REMARK   28  A    between atoms: _67  and  _68
REMARK   29  A    between atoms: _67  and  _70
REMARK   30  A    between atoms: _70  and  _71
REMARK   31  A    between atoms: _74  and  _76
REMARK   32  A    between atoms: _76  and  _77
REMARK   33  A    between atoms: _76  and  _79
REMARK   34  A    between atoms: _79  and  _80
REMARK   35  A    between atoms: _83  and  _85
REMARK   36  A    between atoms: _85  and  _86
REMARK   37  A    between atoms: _85  and  _88
REMARK   38  A    between atoms: _88  and  _89
REMARK   39  A    between atoms: _92  and  _94
REMARK   40  A    between atoms: _94  and  _95
REMARK   41  A    between atoms: _94  and  _97
REMARK   42  A    between atoms: _100  and  _102
REMARK   43  A    between atoms: _102  and  _103
REMARK   44  A    between atoms: _102  and  _105
REMARK   45  A    between atoms: _105  and  _106
REMARK   46  A    between atoms: _106  and  _107
REMARK   47  A    between atoms: _107  and  _108
REMARK   48  A    between atoms: _108  and  _109
REMARK   49  A    between atoms: _113  and  _115
REMARK   50  A    between atoms: _115  and  _116
REMARK   51  A    between atoms: _115  and  _118
REMARK   52  A    between atoms: _118  and  _119
REMARK   53  A    between atoms: _119  and  _120
REMARK   54  A    between atoms: _122  and  _124
REMARK   55  A    between atoms: _124  and  _125
REMARK   56  A    between atoms: _124  and  _127
REMARK   57  A    between atoms: _127  and  _128
REMARK   58  A    between atoms: _131  and  _133
REMARK   59  A    between atoms: _133  and  _134
REMARK   60  A    between atoms: _136  and  _138
REMARK   61  A    between atoms: _138  and  _139
REMARK   62  A    between atoms: _141  and  _143
REMARK   63  A    between atoms: _143  and  _144
REMARK   64  A    between atoms: _143  and  _146
REMARK   65  A    between atoms: _149  and  _151
REMARK   66  A    between atoms: _151  and  _152
REMARK   67  A    between atoms: _154  and  _156
REMARK   68  A    between atoms: _156  and  _157
REMARK   69  A    between atoms: _159  and  _161
REMARK   70  A    between atoms: _161  and  _162
REMARK   71  A    between atoms: _161  and  _164
REMARK   72  A    between atoms: _164  and  _165
REMARK   73  A    between atoms: _171  and  _173
REMARK   74  A    between atoms: _173  and  _174
REMARK   75  A    between atoms: _173  and  _176
REMARK   76  A    between atoms: _176  and  _177
REMARK   77  A    between atoms: _180  and  _182
REMARK   78  A    between atoms: _182  and  _183
REMARK   79  A    between atoms: _182  and  _185
REMARK   80  A    between atoms: _188  and  _190
REMARK   81  A    between atoms: _190  and  _191
REMARK   82  A    between atoms: _190  and  _193
REMARK   83  A    between atoms: _193  and  _194
REMARK   84  A    between atoms: _198  and  _199
REMARK   85  A    between atoms: _204  and  _206
REMARK   86  A    between atoms: _206  and  _207
REMARK   87  A    between atoms: _206  and  _209
REMARK   88  A    between atoms: _209  and  _210
REMARK   89  A    between atoms: _214  and  _215
REMARK   90  A    between atoms: _220  and  _222
REMARK   91  A    between atoms: _222  and  _223
REMARK   92  A    between atoms: _222  and  _225
REMARK   93  A    between atoms: _228  and  _230
REMARK   94  A    between atoms: _230  and  _231
REMARK   95  A    between atoms: _230  and  _233
REMARK   96  A    between atoms: _233  and  _234
REMARK   97  A    between atoms: _239  and  _241
REMARK   98  A    between atoms: _241  and  _242
REMARK   99  A    between atoms: _241  and  _244
REMARK  100  A    between atoms: _244  and  _245
REMARK  101  A    between atoms: _248  and  _250
REMARK  102  A    between atoms: _250  and  _251
REMARK  103  A    between atoms: _250  and  _253
REMARK  104  A    between atoms: _253  and  _254
REMARK  105  A    between atoms: _257  and  _259
REMARK  106  A    between atoms: _259  and  _260
REMARK  107  A    between atoms: _262  and  _264
REMARK  108  A    between atoms: _264  and  _265
REMARK  109  A    between atoms: _264  and  _267
REMARK  110  A    between atoms: _267  and  _268
REMARK  111  A    between atoms: _268  and  _269
REMARK  112  A    between atoms: _269  and  _270
REMARK  113  A    between atoms: _279  and  _281
REMARK  114  A    between atoms: _281  and  _282
REMARK  115  A    between atoms: _281  and  _284
REMARK  116  A    between atoms: _284  and  _285
REMARK  117  A    between atoms: _290  and  _292
REMARK  118  A    between atoms: _292  and  _293
REMARK  119  A    between atoms: _292  and  _295
REMARK  120  A    between atoms: _295  and  _296
REMARK  121  A    between atoms: _296  and  _297
REMARK  122  A    between atoms: _297  and  _298
REMARK  123  A    between atoms: _308  and  _309
REMARK  124  A    between atoms: _314  and  _316
REMARK  125  A    between atoms: _316  and  _317
REMARK  126  A    between atoms: _316  and  _319
REMARK  127  A    between atoms: _319  and  _320
REMARK  128  A    between atoms: _323  and  _325
REMARK  129  A    between atoms: _325  and  _326
REMARK  130  A    between atoms: _325  and  _328
REMARK  131  A    between atoms: _328  and  _329
REMARK  132  A    between atoms: _332  and  _334
REMARK  133  A    between atoms: _334  and  _335
REMARK  134  A    between atoms: _334  and  _337
REMARK  135  A    between atoms: _337  and  _338
REMARK  136  A    between atoms: _341  and  _343
REMARK  137  A    between atoms: _343  and  _344
REMARK  138  A    between atoms: _343  and  _346
REMARK  139  A    between atoms: _346  and  _347
REMARK  140  A    between atoms: _350  and  _352
REMARK  141  A    between atoms: _352  and  _353
REMARK  142  A    between atoms: _352  and  _355
REMARK  143  A    between atoms: _355  and  _356
REMARK  144  A    between atoms: _359  and  _361
REMARK  145  A    between atoms: _361  and  _362
REMARK  146  A    between atoms: _364  and  _366
REMARK  147  A    between atoms: _366  and  _367
REMARK  148  A    between atoms: _370  and  _372
REMARK  149  A    between atoms: _372  and  _373
REMARK  150  A    between atoms: _372  and  _375
REMARK  151  A    between atoms: _375  and  _376
REMARK  152  A    between atoms: _379  and  _381
REMARK  153  A    between atoms: _381  and  _382
REMARK  154  A    between atoms: _381  and  _384
REMARK  155  A    between atoms: _384  and  _385
REMARK  156  A    between atoms: _388  and  _390
REMARK  157  A    between atoms: _390  and  _391
REMARK  158  A    between atoms: _390  and  _393
REMARK  159  A    between atoms: _393  and  _394
REMARK  160  A    between atoms: _397  and  _399
REMARK  161  A    between atoms: _399  and  _400
REMARK  162  A    between atoms: _399  and  _402
REMARK  163  A    between atoms: _405  and  _407
REMARK  164  A    between atoms: _407  and  _408
REMARK  165  A    between atoms: _407  and  _410
REMARK  166  A    between atoms: _410  and  _411
REMARK  167  A    between atoms: _411  and  _412
REMARK  168  A    between atoms: _412  and  _413
REMARK  169  A    between atoms: _413  and  _414
REMARK  170  A    between atoms: _418  and  _420
REMARK  171  A    between atoms: _420  and  _421
REMARK  172  A    between atoms: _420  and  _423
REMARK  173  A    between atoms: _423  and  _424
REMARK  174  A    between atoms: _424  and  _425
REMARK  175  A    between atoms: _427  and  _429
REMARK  176  A    between atoms: _429  and  _430
REMARK  177  A    between atoms: _429  and  _432
REMARK  178  A    between atoms: _432  and  _433
REMARK  179  A    between atoms: _436  and  _438
REMARK  180  A    between atoms: _438  and  _439
REMARK  181  A    between atoms: _441  and  _443
REMARK  182  A    between atoms: _443  and  _444
REMARK  183  A    between atoms: _446  and  _448
REMARK  184  A    between atoms: _448  and  _449
REMARK  185  A    between atoms: _448  and  _451
REMARK  186  A    between atoms: _454  and  _456
REMARK  187  A    between atoms: _456  and  _457
REMARK  188  A    between atoms: _459  and  _461
REMARK  189  A    between atoms: _461  and  _462
REMARK  190  A    between atoms: _464  and  _466
REMARK  191  A    between atoms: _466  and  _467
REMARK  192  A    between atoms: _466  and  _469
REMARK  193  A    between atoms: _469  and  _470
REMARK  194  A    between atoms: _476  and  _478
REMARK  195  A    between atoms: _478  and  _479
REMARK  196  A    between atoms: _478  and  _481
REMARK  197  A    between atoms: _481  and  _482
REMARK  198  A    between atoms: _485  and  _487
REMARK  199  A    between atoms: _487  and  _488
REMARK  200  A    between atoms: _487  and  _490
REMARK  201  A    between atoms: _493  and  _495
REMARK  202  A    between atoms: _495  and  _496
REMARK  203  A    between atoms: _495  and  _498
REMARK  204  A    between atoms: _498  and  _499
REMARK  205  A    between atoms: _503  and  _504
REMARK  206  A    between atoms: _509  and  _511
REMARK  207  A    between atoms: _511  and  _512
REMARK  208  A    between atoms: _511  and  _514
REMARK  209  A    between atoms: _514  and  _515
REMARK  210  A    between atoms: _519  and  _520
REMARK  211  A    between atoms: _525  and  _527
REMARK  212  A    between atoms: _527  and  _528
REMARK  213  A    between atoms: _527  and  _530
REMARK  214  A    between atoms: _533  and  _535
REMARK  215  A    between atoms: _535  and  _536
REMARK  216  A    between atoms: _535  and  _538
REMARK  217  A    between atoms: _538  and  _539
REMARK  218  A    between atoms: _544  and  _546
REMARK  219  A    between atoms: _546  and  _547
REMARK  220  A    between atoms: _546  and  _549
REMARK  221  A    between atoms: _549  and  _550
REMARK  222  A    between atoms: _553  and  _555
REMARK  223  A    between atoms: _555  and  _556
REMARK  224  A    between atoms: _555  and  _558
REMARK  225  A    between atoms: _558  and  _559
REMARK  226  A    between atoms: _562  and  _564
REMARK  227  A    between atoms: _564  and  _565
REMARK  228  A    between atoms: _567  and  _569
REMARK  229  A    between atoms: _569  and  _570
REMARK  230  A    between atoms: _569  and  _572
REMARK  231  A    between atoms: _572  and  _573
REMARK  232  A    between atoms: _573  and  _574
REMARK  233  A    between atoms: _574  and  _575
REMARK                            x       y       z     vdW  Elec       q    Type
REMARK                         _______ _______ _______ _____ _____    ______ ____
ROOT
ATOM      1  C   GLY A   5      10.765  24.077  18.868  0.00  0.00    +0.243 C 
ATOM      2  N   ALA A   6      10.840  23.738  20.149  0.00  0.00    -0.297 N 
ATOM      3  H   ALA A   6      10.818  24.493  20.864  0.00  0.00    +0.150 HD
ATOM      4  O   GLY A   5      10.744  23.220  17.976  0.00  0.00    -0.273 OA
ENDROOT
BRANCH   2   5
ATOM      5  CA  ALA A   6      10.951  22.365  20.599  0.00  0.00    +0.149 C 
ATOM      6  CB  ALA A   6      11.916  22.286  21.787  0.00  0.00    +0.031 C 
BRANCH   5   7
ATOM      7  C   ALA A   6       9.612  21.826  21.009  0.00  0.00    +0.241 C 
ATOM      8  O   ALA A   6       8.923  22.411  21.852  0.00  0.00    -0.273 OA
ATOM      9  N   ASP A   7       9.216  20.681  20.466  0.00  0.00    -0.297 N 
ATOM     10  H   ASP A   7       9.815  20.203  19.763  0.00  0.00    +0.150 HD
BRANCH   9  11
ATOM     11  CA  ASP A   7       7.928  20.090  20.861  0.00  0.00    +0.160 C 
BRANCH  11  12
ATOM     12  C   ASP A   7       8.018  19.556  22.293  0.00  0.00    +0.241 C 
ATOM     13  O   ASP A   7       7.036  19.560  23.050  0.00  0.00    -0.273 OA
ATOM     14  N   ASP A   8       9.175  19.053  22.658  0.00  0.00    -0.297 N 
ATOM     15  H   ASP A   8       9.977  19.238  22.023  0.00  0.00    +0.150 HD
BRANCH  14  16
ATOM     16  CA  ASP A   8       9.466  18.264  23.852  0.00  0.00    +0.160 C 
BRANCH  16  17
ATOM     17  C   ASP A   8      10.583  18.888  24.679  0.00  0.00    +0.241 C 
ATOM     18  N   THR A   9      10.652  18.505  25.914  0.00  0.00    -0.295 N 
ATOM     19  H   THR A   9       9.903  17.867  26.251  0.00  0.00    +0.150 HD
ATOM     20  O   ASP A   8      11.357  19.697  24.182  0.00  0.00    -0.273 OA
BRANCH  18  21
ATOM     21  CA  THR A   9      11.687  18.885  26.886  0.00  0.00    +0.176 C 
BRANCH  21  22
ATOM     22  C   THR A   9      12.730  17.805  26.960  0.00  0.00    +0.243 C 
ATOM     23  O   THR A   9      12.382  16.639  27.168  0.00  0.00    -0.273 OA
ATOM     24  N   VAL A  10      13.982  18.175  26.717  0.00  0.00    -0.298 N 
ATOM     25  H   VAL A  10      14.191  19.175  26.521  0.00  0.00    +0.150 HD
BRANCH  24  26
ATOM     26  CA  VAL A  10      15.079  17.195  26.720  0.00  0.00    +0.137 C 
BRANCH  26  27
ATOM     27  CB  VAL A  10      15.487  16.736  25.320  0.00  0.00    +0.026 C 
ATOM     28  CG2 VAL A  10      16.551  15.620  25.400  0.00  0.00    +0.002 C 
ATOM     29  CG1 VAL A  10      16.006  17.860  24.463  0.00  0.00    +0.002 C 
ENDBRANCH  26  27
BRANCH  26  30
ATOM     30  C   VAL A  10      16.220  17.759  27.565  0.00  0.00    +0.227 C 
ATOM     31  O   VAL A  10      16.658  18.896  27.403  0.00  0.00    -0.286 OA
ENDBRANCH  26  30
ENDBRANCH  24  26
ENDBRANCH  21  22
BRANCH  21  32
ATOM     32  CB  THR A   9      11.001  19.104  28.241  0.00  0.00    +0.137 C 
ATOM     33  CG2 THR A   9      12.004  19.370  29.329  0.00  0.00    +0.034 C 
BRANCH  32  34
ATOM     34  OG1 THR A   9      10.133  20.268  28.091  0.00  0.00    -0.382 OA
ATOM     35  HG1 THR A   9       9.465  20.091  27.383  0.00  0.00    +0.210 HD
ENDBRANCH  32  34
ENDBRANCH  21  32
ENDBRANCH  18  21
ENDBRANCH  16  17
BRANCH  16  36
ATOM     36  CB  ASP A   8       9.925  16.878  23.425  0.00  0.00    +0.143 C 
BRANCH  36  37
ATOM     37  CG  ASP A   8       8.989  16.111  22.549  0.00  0.00    +0.367 C 
ATOM     38  OD2 ASP A   8       7.808  15.952  22.919  0.00  0.00    -0.246 OA
ATOM     39  OD1 ASP A   8       9.427  15.661  21.479  0.00  0.00    -0.246 OA
ENDBRANCH  36  37
ENDBRANCH  16  36
ENDBRANCH  14  16
ENDBRANCH  11  12
BRANCH  11  40
ATOM     40  CB  ASP A   7       7.593  18.964  19.913  0.00  0.00    +0.143 C 
BRANCH  40  41
ATOM     41  CG  ASP A   7       7.371  19.322  18.465  0.00  0.00    +0.367 C 
ATOM     42  OD2 ASP A   7       7.114  20.500  18.152  0.00  0.00    -0.246 OA
ATOM     43  OD1 ASP A   7       7.491  18.377  17.645  0.00  0.00    -0.246 OA
ENDBRANCH  40  41
ENDBRANCH  11  40
ENDBRANCH   9  11
ENDBRANCH   5   7
ENDBRANCH   2   5
BRANCH   1  44
ATOM     44  CA  GLY A   5      10.702  25.570  18.508  0.00  0.00    +0.176 C 
BRANCH  44  47
ATOM     45  C   THR A   4       9.343  26.701  20.175  0.00  0.00    +0.243 C 
ATOM     46  O   THR A   4       8.292  26.218  19.703  0.00  0.00    -0.273 OA
ATOM     47  N   GLY A   5      10.506  26.448  19.651  0.00  0.00    -0.295 N 
ATOM     48  H   GLY A   5      11.343  26.899  20.073  0.00  0.00    +0.150 HD
BRANCH  45  49
ATOM     49  CA  THR A   4       9.270  27.598  21.392  0.00  0.00    +0.176 C 
BRANCH  49  52
ATOM     50  C   ASP A   3      11.075  26.699  22.719  0.00  0.00    +0.241 C 
ATOM     51  O   ASP A   3      10.533  25.578  22.722  0.00  0.00    -0.273 OA
ATOM     52  N   THR A   4      10.511  27.728  22.102  0.00  0.00    -0.295 N 
ATOM     53  H   THR A   4      10.981  28.655  22.133  0.00  0.00    +0.150 HD
BRANCH  50  54
ATOM     54  CA  ASP A   3      12.444  26.918  23.369  0.00  0.00    +0.160 C 
BRANCH  54  56
ATOM     55  C   LEU A   2      12.930  28.195  25.373  0.00  0.00    +0.241 C 
ATOM     56  N   ASP A   3      12.395  27.128  24.822  0.00  0.00    -0.297 N 
ATOM     57  H   ASP A   3      11.929  26.420  25.425  0.00  0.00    +0.150 HD
ATOM     58  O   LEU A   2      13.295  29.182  24.726  0.00  0.00    -0.273 OA
BRANCH  55  59
ATOM     59  CA  LEU A   2      13.134  28.177  26.875  0.00  0.00    +0.149 C 
BRANCH  59  61
ATOM     60  C   LEU A   1      15.245  27.009  27.074  0.00  0.00    +0.238 C 
ATOM     61  N   LEU A   2      14.554  28.148  27.149  0.00  0.00    -0.297 N 
ATOM     62  H   LEU A   2      15.044  29.028  27.408  0.00  0.00    +0.150 HD
ATOM     63  O   LEU A   1      14.700  25.933  26.863  0.00  0.00    -0.274 OA
BRANCH  60  64
ATOM     64  CA  LEU A   1      16.746  27.075  27.250  0.00  0.00    +0.145 C 
BRANCH  64  65
ATOM     65  N   LEU A   1      17.204  26.167  28.290  0.00  0.00    -0.238 NA
ATOM     66  H   LEU A   1      17.381  25.180  28.013  0.00  0.00    +0.142 HD
ENDBRANCH  64  65
BRANCH  64  67
ATOM     67  CB  LEU A   1      17.292  26.761  25.863  0.00  0.00    +0.026 C 
BRANCH  67  68
ATOM     68  CG  LEU A   1      18.651  27.190  25.402  0.00  0.00    +0.002 C 
ATOM     69  CD2 LEU A   1      18.830  28.693  25.309  0.00  0.00    +0.000 C 
ATOM     70  CD1 LEU A   1      18.914  26.601  24.014  0.00  0.00    +0.000 C 
ENDBRANCH  67  68
ENDBRANCH  64  67
ENDBRANCH  60  64
ENDBRANCH  59  61
BRANCH  59  71
ATOM     71  CB  LEU A   2      12.507  29.392  27.522  0.00  0.00    +0.029 C 
BRANCH  71  72
ATOM     72  CG  LEU A   2      12.644  29.477  29.059  0.00  0.00    +0.002 C 
ATOM     73  CD2 LEU A   2      12.172  28.198  29.702  0.00  0.00    +0.000 C 
ATOM     74  CD1 LEU A   2      11.871  30.691  29.574  0.00  0.00    +0.000 C 
ENDBRANCH  71  72
ENDBRANCH  59  71
ENDBRANCH  55  59
ENDBRANCH  54  56
BRANCH  54  75
ATOM     75  CB  ASP A   3      13.309  25.701  23.100  0.00  0.00    +0.143 C 
BRANCH  75  76
ATOM     76  CG  ASP A   3      13.605  25.618  21.620  0.00  0.00    +0.367 C 
ATOM     77  OD2 ASP A   3      14.377  24.720  21.243  0.00  0.00    -0.246 OA
ATOM     78  OD1 ASP A   3      13.081  26.472  20.815  0.00  0.00    -0.246 OA
ENDBRANCH  75  76
ENDBRANCH  54  75
ENDBRANCH  50  54
ENDBRANCH  49  52
BRANCH  49  79
ATOM     79  CB  THR A   4       8.768  28.968  20.943  0.00  0.00    +0.137 C 
ATOM     80  CG2 THR A   4       8.535  29.851  22.164  0.00  0.00    +0.034 C 
BRANCH  79  81
ATOM     81  OG1 THR A   4       9.716  29.569  20.054  0.00  0.00    -0.382 OA
ATOM     82  HG1 THR A   4       9.836  28.989  19.261  0.00  0.00    +0.210 HD
ENDBRANCH  79  81
ENDBRANCH  49  79
ENDBRANCH  45  49
ENDBRANCH  44  47
ENDBRANCH   1  44
TORSDOF 35
REMARK  Name = ../refined-set-2016/3cyx/3cyx_pocket.pdb
REMARK  233 active torsions:
REMARK  status: ('A' for Active; 'I' for Inactive)
REMARK    1  A    between atoms: _1  and  _3
REMARK    2  A    between atoms: _3  and  _4
REMARK    3  A    between atoms: _3  and  _6
REMARK    4  A    between atoms: _6  and  _7
REMARK    5  A    between atoms: _7  and  _8
REMARK    6  A    between atoms: _8  and  _9
REMARK    7  A    between atoms: _18  and  _20
REMARK    8  A    between atoms: _20  and  _21
REMARK    9  A    between atoms: _20  and  _23
REMARK   10  A    between atoms: _23  and  _24
REMARK   11  A    between atoms: _27  and  _29
REMARK   12  A    between atoms: _29  and  _30
REMARK   13  A    between atoms: _29  and  _32
REMARK   14  A    between atoms: _32  and  _33
REMARK   15  A    between atoms: _36  and  _38
REMARK   16  A    between atoms: _38  and  _39
REMARK   17  A    between atoms: _38  and  _41
REMARK   18  A    between atoms: _41  and  _42
REMARK   19  A    between atoms: _45  and  _47
REMARK   20  A    between atoms: _47  and  _48
REMARK   21  A    between atoms: _47  and  _50
REMARK   22  A    between atoms: _50  and  _51
REMARK   23  A    between atoms: _54  and  _56
REMARK   24  A    between atoms: _56  and  _57
REMARK   25  A    between atoms: _59  and  _61
REMARK   26  A    between atoms: _61  and  _62
REMARK   27  A    between atoms: _65  and  _67
REMARK   28  A    between atoms: _67  and  _68
REMARK   29  A    between atoms: _67  and  _70
REMARK   30  A    between atoms: _70  and  _71
REMARK   31  A    between atoms: _74  and  _76
REMARK   32  A    between atoms: _76  and  _77
REMARK   33  A    between atoms: _76  and  _79
REMARK   34  A    between atoms: _79  and  _80
REMARK   35  A    between atoms: _83  and  _85
REMARK   36  A    between atoms: _85  and  _86
REMARK   37  A    between atoms: _85  and  _88
REMARK   38  A    between atoms: _88  and  _89
REMARK   39  A    between atoms: _92  and  _94
REMARK   40  A    between atoms: _94  and  _95
REMARK   41  A    between atoms: _94  and  _97
REMARK   42  A    between atoms: _100  and  _102
REMARK   43  A    between atoms: _102  and  _103
REMARK   44  A    between atoms: _102  and  _105
REMARK   45  A    between atoms: _105  and  _106
REMARK   46  A    between atoms: _106  and  _107
REMARK   47  A    between atoms: _107  and  _108
REMARK   48  A    between atoms: _108  and  _109
REMARK   49  A    between atoms: _113  and  _115
REMARK   50  A    between atoms: _115  and  _116
REMARK   51  A    between atoms: _115  and  _118
REMARK   52  A    between atoms: _118  and  _119
REMARK   53  A    between atoms: _119  and  _120
REMARK   54  A    between atoms: _122  and  _124
REMARK   55  A    between atoms: _124  and  _125
REMARK   56  A    between atoms: _124  and  _127
REMARK   57  A    between atoms: _127  and  _128
REMARK   58  A    between atoms: _131  and  _133
REMARK   59  A    between atoms: _133  and  _134
REMARK   60  A    between atoms: _136  and  _138
REMARK   61  A    between atoms: _138  and  _139
REMARK   62  A    between atoms: _141  and  _143
REMARK   63  A    between atoms: _143  and  _144
REMARK   64  A    between atoms: _143  and  _146
REMARK   65  A    between atoms: _149  and  _151
REMARK   66  A    between atoms: _151  and  _152
REMARK   67  A    between atoms: _154  and  _156
REMARK   68  A    between atoms: _156  and  _157
REMARK   69  A    between atoms: _159  and  _161
REMARK   70  A    between atoms: _161  and  _162
REMARK   71  A    between atoms: _161  and  _164
REMARK   72  A    between atoms: _164  and  _165
REMARK   73  A    between atoms: _171  and  _173
REMARK   74  A    between atoms: _173  and  _174
REMARK   75  A    between atoms: _173  and  _176
REMARK   76  A    between atoms: _176  and  _177
REMARK   77  A    between atoms: _180  and  _182
REMARK   78  A    between atoms: _182  and  _183
REMARK   79  A    between atoms: _182  and  _185
REMARK   80  A    between atoms: _188  and  _190
REMARK   81  A    between atoms: _190  and  _191
REMARK   82  A    between atoms: _190  and  _193
REMARK   83  A    between atoms: _193  and  _194
REMARK   84  A    between atoms: _198  and  _199
REMARK   85  A    between atoms: _204  and  _206
REMARK   86  A    between atoms: _206  and  _207
REMARK   87  A    between atoms: _206  and  _209
REMARK   88  A    between atoms: _209  and  _210
REMARK   89  A    between atoms: _214  and  _215
REMARK   90  A    between atoms: _220  and  _222
REMARK   91  A    between atoms: _222  and  _223
REMARK   92  A    between atoms: _222  and  _225
REMARK   93  A    between atoms: _228  and  _230
REMARK   94  A    between atoms: _230  and  _231
REMARK   95  A    between atoms: _230  and  _233
REMARK   96  A    between atoms: _233  and  _234
REMARK   97  A    between atoms: _239  and  _241
REMARK   98  A    between atoms: _241  and  _242
REMARK   99  A    between atoms: _241  and  _244
REMARK  100  A    between atoms: _244  and  _245
REMARK  101  A    between atoms: _248  and  _250
REMARK  102  A    between atoms: _250  and  _251
REMARK  103  A    between atoms: _250  and  _253
REMARK  104  A    between atoms: _253  and  _254
REMARK  105  A    between atoms: _257  and  _259
REMARK  106  A    between atoms: _259  and  _260
REMARK  107  A    between atoms: _262  and  _264
REMARK  108  A    between atoms: _264  and  _265
REMARK  109  A    between atoms: _264  and  _267
REMARK  110  A    between atoms: _267  and  _268
REMARK  111  A    between atoms: _268  and  _269
REMARK  112  A    between atoms: _269  and  _270
REMARK  113  A    between atoms: _279  and  _281
REMARK  114  A    between atoms: _281  and  _282
REMARK  115  A    between atoms: _281  and  _284
REMARK  116  A    between atoms: _284  and  _285
REMARK  117  A    between atoms: _290  and  _292
REMARK  118  A    between atoms: _292  and  _293
REMARK  119  A    between atoms: _292  and  _295
REMARK  120  A    between atoms: _295  and  _296
REMARK  121  A    between atoms: _296  and  _297
REMARK  122  A    between atoms: _297  and  _298
REMARK  123  A    between atoms: _308  and  _309
REMARK  124  A    between atoms: _314  and  _316
REMARK  125  A    between atoms: _316  and  _317
REMARK  126  A    between atoms: _316  and  _319
REMARK  127  A    between atoms: _319  and  _320
REMARK  128  A    between atoms: _323  and  _325
REMARK  129  A    between atoms: _325  and  _326
REMARK  130  A    between atoms: _325  and  _328
REMARK  131  A    between atoms: _328  and  _329
REMARK  132  A    between atoms: _332  and  _334
REMARK  133  A    between atoms: _334  and  _335
REMARK  134  A    between atoms: _334  and  _337
REMARK  135  A    between atoms: _337  and  _338
REMARK  136  A    between atoms: _341  and  _343
REMARK  137  A    between atoms: _343  and  _344
REMARK  138  A    between atoms: _343  and  _346
REMARK  139  A    between atoms: _346  and  _347
REMARK  140  A    between atoms: _350  and  _352
REMARK  141  A    between atoms: _352  and  _353
REMARK  142  A    between atoms: _352  and  _355
REMARK  143  A    between atoms: _355  and  _356
REMARK  144  A    between atoms: _359  and  _361
REMARK  145  A    between atoms: _361  and  _362
REMARK  146  A    between atoms: _364  and  _366
REMARK  147  A    between atoms: _366  and  _367
REMARK  148  A    between atoms: _370  and  _372
REMARK  149  A    between atoms: _372  and  _373
REMARK  150  A    between atoms: _372  and  _375
REMARK  151  A    between atoms: _375  and  _376
REMARK  152  A    between atoms: _379  and  _381
REMARK  153  A    between atoms: _381  and  _382
REMARK  154  A    between atoms: _381  and  _384
REMARK  155  A    between atoms: _384  and  _385
REMARK  156  A    between atoms: _388  and  _390
REMARK  157  A    between atoms: _390  and  _391
REMARK  158  A    between atoms: _390  and  _393
REMARK  159  A    between atoms: _393  and  _394
REMARK  160  A    between atoms: _397  and  _399
REMARK  161  A    between atoms: _399  and  _400
REMARK  162  A    between atoms: _399  and  _402
REMARK  163  A    between atoms: _405  and  _407
REMARK  164  A    between atoms: _407  and  _408
REMARK  165  A    between atoms: _407  and  _410
REMARK  166  A    between atoms: _410  and  _411
REMARK  167  A    between atoms: _411  and  _412
REMARK  168  A    between atoms: _412  and  _413
REMARK  169  A    between atoms: _413  and  _414
REMARK  170  A    between atoms: _418  and  _420
REMARK  171  A    between atoms: _420  and  _421
REMARK  172  A    between atoms: _420  and  _423
REMARK  173  A    between atoms: _423  and  _424
REMARK  174  A    between atoms: _424  and  _425
REMARK  175  A    between atoms: _427  and  _429
REMARK  176  A    between atoms: _429  and  _430
REMARK  177  A    between atoms: _429  and  _432
REMARK  178  A    between atoms: _432  and  _433
REMARK  179  A    between atoms: _436  and  _438
REMARK  180  A    between atoms: _438  and  _439
REMARK  181  A    between atoms: _441  and  _443
REMARK  182  A    between atoms: _443  and  _444
REMARK  183  A    between atoms: _446  and  _448
REMARK  184  A    between atoms: _448  and  _449
REMARK  185  A    between atoms: _448  and  _451
REMARK  186  A    between atoms: _454  and  _456
REMARK  187  A    between atoms: _456  and  _457
REMARK  188  A    between atoms: _459  and  _461
REMARK  189  A    between atoms: _461  and  _462
REMARK  190  A    between atoms: _464  and  _466
REMARK  191  A    between atoms: _466  and  _467
REMARK  192  A    between atoms: _466  and  _469
REMARK  193  A    between atoms: _469  and  _470
REMARK  194  A    between atoms: _476  and  _478
REMARK  195  A    between atoms: _478  and  _479
REMARK  196  A    between atoms: _478  and  _481
REMARK  197  A    between atoms: _481  and  _482
REMARK  198  A    between atoms: _485  and  _487
REMARK  199  A    between atoms: _487  and  _488
REMARK  200  A    between atoms: _487  and  _490
REMARK  201  A    between atoms: _493  and  _495
REMARK  202  A    between atoms: _495  and  _496
REMARK  203  A    between atoms: _495  and  _498
REMARK  204  A    between atoms: _498  and  _499
REMARK  205  A    between atoms: _503  and  _504
REMARK  206  A    between atoms: _509  and  _511
REMARK  207  A    between atoms: _511  and  _512
REMARK  208  A    between atoms: _511  and  _514
REMARK  209  A    between atoms: _514  and  _515
REMARK  210  A    between atoms: _519  and  _520
REMARK  211  A    between atoms: _525  and  _527
REMARK  212  A    between atoms: _527  and  _528
REMARK  213  A    between atoms: _527  and  _530
REMARK  214  A    between atoms: _533  and  _535
REMARK  215  A    between atoms: _535  and  _536
REMARK  216  A    between atoms: _535  and  _538
REMARK  217  A    between atoms: _538  and  _539
REMARK  218  A    between atoms: _544  and  _546
REMARK  219  A    between atoms: _546  and  _547
REMARK  220  A    between atoms: _546  and  _549
REMARK  221  A    between atoms: _549  and  _550
REMARK  222  A    between atoms: _553  and  _555
REMARK  223  A    between atoms: _555  and  _556
REMARK  224  A    between atoms: _555  and  _558
REMARK  225  A    between atoms: _558  and  _559
REMARK  226  A    between atoms: _562  and  _564
REMARK  227  A    between atoms: _564  and  _565
REMARK  228  A    between atoms: _567  and  _569
REMARK  229  A    between atoms: _569  and  _570
REMARK  230  A    between atoms: _569  and  _572
REMARK  231  A    between atoms: _572  and  _573
REMARK  232  A    between atoms: _573  and  _574
REMARK  233  A    between atoms: _574  and  _575
REMARK                            x       y       z     vdW  Elec       q    Type
REMARK                         _______ _______ _______ _____ _____    ______ ____
ROOT
ATOM      1  C   GLY A   5      17.396  18.329  14.232  0.00  0.00    +0.243 C 
ATOM      2  N   VAL A   6      18.071  19.466  14.192  0.00  0.00    -0.297 N 
ATOM      3  H   VAL A   6      18.276  19.967  15.080  0.00  0.00    +0.150 HD
ATOM      4  O   GLY A   5      17.346  17.652  13.192  0.00  0.00    -0.273 OA
ENDROOT
BRANCH   2   5
ATOM      5  CA  VAL A   6      18.532  20.030  12.934  0.00  0.00    +0.149 C 
BRANCH   5   6
ATOM      6  C   VAL A   6      19.559  19.126  12.280  0.00  0.00    +0.241 C 
ATOM      7  N   GLY A   7      20.317  18.391  13.099  0.00  0.00    -0.295 N 
ATOM      8  H   GLY A   7      20.128  18.416  14.121  0.00  0.00    +0.150 HD
ATOM      9  O   VAL A   6      19.660  19.070  11.072  0.00  0.00    -0.273 OA
BRANCH   7  10
ATOM     10  CA  GLY A   7      21.394  17.560  12.602  0.00  0.00    +0.176 C 
BRANCH  10  11
ATOM     11  C   GLY A   7      21.133  16.077  12.480  0.00  0.00    +0.243 C 
ATOM     12  N   GLY A   8      19.954  15.613  12.832  0.00  0.00    -0.295 N 
ATOM     13  H   GLY A   8      19.261  16.309  13.173  0.00  0.00    +0.150 HD
ATOM     14  O   GLY A   7      21.994  15.297  12.050  0.00  0.00    -0.273 OA
BRANCH  12  15
ATOM     15  CA  GLY A   8      19.526  14.243  12.794  0.00  0.00    +0.176 C 
BRANCH  15  16
ATOM     16  C   GLY A   8      18.845  13.853  14.073  0.00  0.00    +0.243 C 
ATOM     17  O   GLY A   8      18.424  14.690  14.848  0.00  0.00    -0.273 OA
ATOM     18  N   PHE A   9      18.715  12.556  14.275  0.00  0.00    -0.297 N 
ATOM     19  H   PHE A   9      19.206  11.916  13.618  0.00  0.00    +0.150 HD
BRANCH  18  20
ATOM     20  CA  PHE A   9      17.949  11.960  15.331  0.00  0.00    +0.153 C 
BRANCH  20  21
ATOM     21  C   PHE A   9      18.826  11.452  16.464  0.00  0.00    +0.241 C 
ATOM     22  N   ILE A  10      18.299  11.547  17.689  0.00  0.00    -0.298 N 
ATOM     23  H   ILE A  10      17.403  12.062  17.805  0.00  0.00    +0.150 HD
ATOM     24  O   PHE A   9      19.904  10.960  16.203  0.00  0.00    -0.273 OA
BRANCH  22  25
ATOM     25  CA  ILE A  10      18.915  10.970  18.854  0.00  0.00    +0.137 C 
BRANCH  25  26
ATOM     26  CB  ILE A  10      19.553  12.009  19.808  0.00  0.00    +0.026 C 
ATOM     27  CG2 ILE A  10      20.727  12.793  19.127  0.00  0.00    +0.002 C 
BRANCH  26  28
ATOM     28  CG1 ILE A  10      18.567  12.976  20.442  0.00  0.00    +0.002 C 
ATOM     29  CD1 ILE A  10      18.936  13.751  21.658  0.00  0.00    +0.000 C 
ENDBRANCH  26  28
ENDBRANCH  25  26
BRANCH  25  30
ATOM     30  C   ILE A  10      17.890  10.106  19.592  0.00  0.00    +0.227 C 
ATOM     31  O   ILE A  10      16.684  10.351  19.550  0.00  0.00    -0.286 OA
ENDBRANCH  25  30
ENDBRANCH  22  25
ENDBRANCH  20  21
BRANCH  20  32
ATOM     32  CB  PHE A   9      17.123  10.763  14.808  0.00  0.00    +0.055 C 
BRANCH  32  33
ATOM     33  CG  PHE A   9      15.974  11.215  13.930  0.00  0.00    -0.020 A 
ATOM     34  CD2 PHE A   9      14.710  11.334  14.464  0.00  0.00    -0.004 A 
ATOM     35  CE2 PHE A   9      13.655  11.773  13.677  0.00  0.00    -0.000 A 
ATOM     36  CZ  PHE A   9      13.912  12.067  12.349  0.00  0.00    -0.000 A 
ATOM     37  CE1 PHE A   9      15.190  11.941  11.804  0.00  0.00    -0.000 A 
ATOM     38  CD1 PHE A   9      16.240  11.504  12.597  0.00  0.00    -0.004 A 
ENDBRANCH  32  33
ENDBRANCH  20  32
ENDBRANCH  18  20
ENDBRANCH  15  16
ENDBRANCH  12  15
ENDBRANCH  10  11
ENDBRANCH   7  10
ENDBRANCH   5   6
BRANCH   5  39
ATOM     39  CB  VAL A   6      19.090  21.441  13.144  0.00  0.00    +0.027 C 
ATOM     40  CG2 VAL A   6      20.388  21.479  13.875  0.00  0.00    +0.002 C 
ATOM     41  CG1 VAL A   6      19.150  22.166  11.792  0.00  0.00    +0.002 C 
ENDBRANCH   5  39
ENDBRANCH   2   5
BRANCH   1  42
ATOM     42  CA  GLY A   5      16.842  17.930  15.590  0.00  0.00    +0.176 C 
BRANCH  42  45
ATOM     43  C   GLY A   4      15.135  16.228  15.746  0.00  0.00    +0.243 C 
ATOM     44  O   GLY A   4      14.271  17.002  16.063  0.00  0.00    -0.273 OA
ATOM     45  N   GLY A   5      16.393  16.562  15.514  0.00  0.00    -0.295 N 
ATOM     46  H   GLY A   5      17.077  15.818  15.270  0.00  0.00    +0.150 HD
BRANCH  43  47
ATOM     47  CA  GLY A   4      14.850  14.768  15.527  0.00  0.00    +0.176 C 
BRANCH  47  50
ATOM     48  C   ILE A   3      14.667  13.358  17.493  0.00  0.00    +0.241 C 
ATOM     49  O   ILE A   3      15.842  13.004  17.492  0.00  0.00    -0.273 OA
ATOM     50  N   GLY A   4      14.121  14.201  16.618  0.00  0.00    -0.295 N 
ATOM     51  H   GLY A   4      13.120  14.458  16.734  0.00  0.00    +0.150 HD
BRANCH  48  52
ATOM     52  CA  ILE A   3      13.652  12.817  18.519  0.00  0.00    +0.149 C 
BRANCH  52  54
ATOM     53  C   MET A   2      13.115  10.463  18.689  0.00  0.00    +0.241 C 
ATOM     54  N   ILE A   3      14.002  11.425  18.804  0.00  0.00    -0.297 N 
ATOM     55  H   ILE A   3      14.971  11.193  19.103  0.00  0.00    +0.150 HD
ATOM     56  O   MET A   2      11.935  10.603  18.339  0.00  0.00    -0.273 OA
BRANCH  53  57
ATOM     57  CA  MET A   2      13.648   9.081  19.010  0.00  0.00    +0.149 C 
BRANCH  57  60
ATOM     58  C   LYS A   1      12.925   8.235  21.174  0.00  0.00    +0.238 C 
ATOM     59  O   LYS A   1      14.070   8.276  21.648  0.00  0.00    -0.274 OA
ATOM     60  N   MET A   2      12.682   8.482  19.905  0.00  0.00    -0.297 N 
ATOM     61  H   MET A   2      11.746   8.234  19.525  0.00  0.00    +0.150 HD
BRANCH  58  62
ATOM     62  CA  LYS A   1      11.722   7.818  22.028  0.00  0.00    +0.145 C 
BRANCH  62  63
ATOM     63  N   LYS A   1      12.171   6.817  23.000  0.00  0.00    -0.238 NA
ATOM     64  H   LYS A   1      13.156   6.831  23.334  0.00  0.00    +0.142 HD
ENDBRANCH  62  63
BRANCH  62  65
ATOM     65  CB  LYS A   1      11.107   9.029  22.715  0.00  0.00    +0.026 C 
BRANCH  65  66
ATOM     66  CG  LYS A   1      10.572  10.143  21.830  0.00  0.00    -0.000 C 
BRANCH  66  67
ATOM     67  CD  LYS A   1       9.210  10.621  22.284  0.00  0.00    -0.024 C 
BRANCH  67  68
ATOM     68  CE  LYS A   1       8.562  11.479  21.212  0.00  0.00    -0.086 C 
BRANCH  68  69
ATOM     69  NZ  LYS A   1       7.915  12.708  21.750  0.00  0.00    +0.380 N 
ATOM     70  HZ1 LYS A   1       7.173  12.439  22.427  0.00  0.00    -0.089 HD
ATOM     71  HZ2 LYS A   1       8.629  13.292  22.230  0.00  0.00    -0.089 HD
ATOM     72  HZ3 LYS A   1       7.493  13.247  20.967  0.00  0.00    -0.089 HD
ENDBRANCH  68  69
ENDBRANCH  67  68
ENDBRANCH  66  67
ENDBRANCH  65  66
ENDBRANCH  62  65
ENDBRANCH  58  62
ENDBRANCH  57  60
BRANCH  57  73
ATOM     73  CB  MET A   2      13.829   8.228  17.751  0.00  0.00    +0.041 C 
BRANCH  73  74
ATOM     74  CG  MET A   2      14.686   6.972  17.985  0.00  0.00    +0.060 C 
BRANCH  74  75
ATOM     75  SD  MET A   2      16.417   7.301  17.594  0.00  0.00    -0.139 S 
ATOM     76  CE  MET A   2      16.279   7.583  15.832  0.00  0.00    +0.069 C 
ENDBRANCH  74  75
ENDBRANCH  73  74
ENDBRANCH  57  73
ENDBRANCH  53  57
ENDBRANCH  52  54
BRANCH  52  77
ATOM     77  CB  ILE A   3      13.574  13.691  19.786  0.00  0.00    +0.027 C 
ATOM     78  CG2 ILE A   3      12.420  13.202  20.637  0.00  0.00    +0.002 C 
BRANCH  77  79
ATOM     79  CG1 ILE A   3      14.901  13.775  20.526  0.00  0.00    +0.002 C 
ATOM     80  CD1 ILE A   3      14.934  14.659  21.774  0.00  0.00    +0.000 C 
ENDBRANCH  77  79
ENDBRANCH  52  77
ENDBRANCH  48  52
ENDBRANCH  47  50
ENDBRANCH  43  47
ENDBRANCH  42  45
ENDBRANCH   1  42
TORSDOF 35
REMARK  Name = ../refined-set-2016/3cyx/3cyx_pocket.pdb
REMARK  233 active torsions:
REMARK  status: ('A' for Active; 'I' for Inactive)
REMARK    1  A    between atoms: _1  and  _3
REMARK    2  A    between atoms: _3  and  _4
REMARK    3  A    between atoms: _3  and  _6
REMARK    4  A    between atoms: _6  and  _7
REMARK    5  A    between atoms: _7  and  _8
REMARK    6  A    between atoms: _8  and  _9
REMARK    7  A    between atoms: _18  and  _20
REMARK    8  A    between atoms: _20  and  _21
REMARK    9  A    between atoms: _20  and  _23
REMARK   10  A    between atoms: _23  and  _24
REMARK   11  A    between atoms: _27  and  _29
REMARK   12  A    between atoms: _29  and  _30
REMARK   13  A    between atoms: _29  and  _32
REMARK   14  A    between atoms: _32  and  _33
REMARK   15  A    between atoms: _36  and  _38
REMARK   16  A    between atoms: _38  and  _39
REMARK   17  A    between atoms: _38  and  _41
REMARK   18  A    between atoms: _41  and  _42
REMARK   19  A    between atoms: _45  and  _47
REMARK   20  A    between atoms: _47  and  _48
REMARK   21  A    between atoms: _47  and  _50
REMARK   22  A    between atoms: _50  and  _51
REMARK   23  A    between atoms: _54  and  _56
REMARK   24  A    between atoms: _56  and  _57
REMARK   25  A    between atoms: _59  and  _61
REMARK   26  A    between atoms: _61  and  _62
REMARK   27  A    between atoms: _65  and  _67
REMARK   28  A    between atoms: _67  and  _68
REMARK   29  A    between atoms: _67  and  _70
REMARK   30  A    between atoms: _70  and  _71
REMARK   31  A    between atoms: _74  and  _76
REMARK   32  A    between atoms: _76  and  _77
REMARK   33  A    between atoms: _76  and  _79
REMARK   34  A    between atoms: _79  and  _80
REMARK   35  A    between atoms: _83  and  _85
REMARK   36  A    between atoms: _85  and  _86
REMARK   37  A    between atoms: _85  and  _88
REMARK   38  A    between atoms: _88  and  _89
REMARK   39  A    between atoms: _92  and  _94
REMARK   40  A    between atoms: _94  and  _95
REMARK   41  A    between atoms: _94  and  _97
REMARK   42  A    between atoms: _100  and  _102
REMARK   43  A    between atoms: _102  and  _103
REMARK   44  A    between atoms: _102  and  _105
REMARK   45  A    between atoms: _105  and  _106
REMARK   46  A    between atoms: _106  and  _107
REMARK   47  A    between atoms: _107  and  _108
REMARK   48  A    between atoms: _108  and  _109
REMARK   49  A    between atoms: _113  and  _115
REMARK   50  A    between atoms: _115  and  _116
REMARK   51  A    between atoms: _115  and  _118
REMARK   52  A    between atoms: _118  and  _119
REMARK   53  A    between atoms: _119  and  _120
REMARK   54  A    between atoms: _122  and  _124
REMARK   55  A    between atoms: _124  and  _125
REMARK   56  A    between atoms: _124  and  _127
REMARK   57  A    between atoms: _127  and  _128
REMARK   58  A    between atoms: _131  and  _133
REMARK   59  A    between atoms: _133  and  _134
REMARK   60  A    between atoms: _136  and  _138
REMARK   61  A    between atoms: _138  and  _139
REMARK   62  A    between atoms: _141  and  _143
REMARK   63  A    between atoms: _143  and  _144
REMARK   64  A    between atoms: _143  and  _146
REMARK   65  A    between atoms: _149  and  _151
REMARK   66  A    between atoms: _151  and  _152
REMARK   67  A    between atoms: _154  and  _156
REMARK   68  A    between atoms: _156  and  _157
REMARK   69  A    between atoms: _159  and  _161
REMARK   70  A    between atoms: _161  and  _162
REMARK   71  A    between atoms: _161  and  _164
REMARK   72  A    between atoms: _164  and  _165
REMARK   73  A    between atoms: _171  and  _173
REMARK   74  A    between atoms: _173  and  _174
REMARK   75  A    between atoms: _173  and  _176
REMARK   76  A    between atoms: _176  and  _177
REMARK   77  A    between atoms: _180  and  _182
REMARK   78  A    between atoms: _182  and  _183
REMARK   79  A    between atoms: _182  and  _185
REMARK   80  A    between atoms: _188  and  _190
REMARK   81  A    between atoms: _190  and  _191
REMARK   82  A    between atoms: _190  and  _193
REMARK   83  A    between atoms: _193  and  _194
REMARK   84  A    between atoms: _198  and  _199
REMARK   85  A    between atoms: _204  and  _206
REMARK   86  A    between atoms: _206  and  _207
REMARK   87  A    between atoms: _206  and  _209
REMARK   88  A    between atoms: _209  and  _210
REMARK   89  A    between atoms: _214  and  _215
REMARK   90  A    between atoms: _220  and  _222
REMARK   91  A    between atoms: _222  and  _223
REMARK   92  A    between atoms: _222  and  _225
REMARK   93  A    between atoms: _228  and  _230
REMARK   94  A    between atoms: _230  and  _231
REMARK   95  A    between atoms: _230  and  _233
REMARK   96  A    between atoms: _233  and  _234
REMARK   97  A    between atoms: _239  and  _241
REMARK   98  A    between atoms: _241  and  _242
REMARK   99  A    between atoms: _241  and  _244
REMARK  100  A    between atoms: _244  and  _245
REMARK  101  A    between atoms: _248  and  _250
REMARK  102  A    between atoms: _250  and  _251
REMARK  103  A    between atoms: _250  and  _253
REMARK  104  A    between atoms: _253  and  _254
REMARK  105  A    between atoms: _257  and  _259
REMARK  106  A    between atoms: _259  and  _260
REMARK  107  A    between atoms: _262  and  _264
REMARK  108  A    between atoms: _264  and  _265
REMARK  109  A    between atoms: _264  and  _267
REMARK  110  A    between atoms: _267  and  _268
REMARK  111  A    between atoms: _268  and  _269
REMARK  112  A    between atoms: _269  and  _270
REMARK  113  A    between atoms: _279  and  _281
REMARK  114  A    between atoms: _281  and  _282
REMARK  115  A    between atoms: _281  and  _284
REMARK  116  A    between atoms: _284  and  _285
REMARK  117  A    between atoms: _290  and  _292
REMARK  118  A    between atoms: _292  and  _293
REMARK  119  A    between atoms: _292  and  _295
REMARK  120  A    between atoms: _295  and  _296
REMARK  121  A    between atoms: _296  and  _297
REMARK  122  A    between atoms: _297  and  _298
REMARK  123  A    between atoms: _308  and  _309
REMARK  124  A    between atoms: _314  and  _316
REMARK  125  A    between atoms: _316  and  _317
REMARK  126  A    between atoms: _316  and  _319
REMARK  127  A    between atoms: _319  and  _320
REMARK  128  A    between atoms: _323  and  _325
REMARK  129  A    between atoms: _325  and  _326
REMARK  130  A    between atoms: _325  and  _328
REMARK  131  A    between atoms: _328  and  _329
REMARK  132  A    between atoms: _332  and  _334
REMARK  133  A    between atoms: _334  and  _335
REMARK  134  A    between atoms: _334  and  _337
REMARK  135  A    between atoms: _337  and  _338
REMARK  136  A    between atoms: _341  and  _343
REMARK  137  A    between atoms: _343  and  _344
REMARK  138  A    between atoms: _343  and  _346
REMARK  139  A    between atoms: _346  and  _347
REMARK  140  A    between atoms: _350  and  _352
REMARK  141  A    between atoms: _352  and  _353
REMARK  142  A    between atoms: _352  and  _355
REMARK  143  A    between atoms: _355  and  _356
REMARK  144  A    between atoms: _359  and  _361
REMARK  145  A    between atoms: _361  and  _362
REMARK  146  A    between atoms: _364  and  _366
REMARK  147  A    between atoms: _366  and  _367
REMARK  148  A    between atoms: _370  and  _372
REMARK  149  A    between atoms: _372  and  _373
REMARK  150  A    between atoms: _372  and  _375
REMARK  151  A    between atoms: _375  and  _376
REMARK  152  A    between atoms: _379  and  _381
REMARK  153  A    between atoms: _381  and  _382
REMARK  154  A    between atoms: _381  and  _384
REMARK  155  A    between atoms: _384  and  _385
REMARK  156  A    between atoms: _388  and  _390
REMARK  157  A    between atoms: _390  and  _391
REMARK  158  A    between atoms: _390  and  _393
REMARK  159  A    between atoms: _393  and  _394
REMARK  160  A    between atoms: _397  and  _399
REMARK  161  A    between atoms: _399  and  _400
REMARK  162  A    between atoms: _399  and  _402
REMARK  163  A    between atoms: _405  and  _407
REMARK  164  A    between atoms: _407  and  _408
REMARK  165  A    between atoms: _407  and  _410
REMARK  166  A    between atoms: _410  and  _411
REMARK  167  A    between atoms: _411  and  _412
REMARK  168  A    between atoms: _412  and  _413
REMARK  169  A    between atoms: _413  and  _414
REMARK  170  A    between atoms: _418  and  _420
REMARK  171  A    between atoms: _420  and  _421
REMARK  172  A    between atoms: _420  and  _423
REMARK  173  A    between atoms: _423  and  _424
REMARK  174  A    between atoms: _424  and  _425
REMARK  175  A    between atoms: _427  and  _429
REMARK  176  A    between atoms: _429  and  _430
REMARK  177  A    between atoms: _429  and  _432
REMARK  178  A    between atoms: _432  and  _433
REMARK  179  A    between atoms: _436  and  _438
REMARK  180  A    between atoms: _438  and  _439
REMARK  181  A    between atoms: _441  and  _443
REMARK  182  A    between atoms: _443  and  _444
REMARK  183  A    between atoms: _446  and  _448
REMARK  184  A    between atoms: _448  and  _449
REMARK  185  A    between atoms: _448  and  _451
REMARK  186  A    between atoms: _454  and  _456
REMARK  187  A    between atoms: _456  and  _457
REMARK  188  A    between atoms: _459  and  _461
REMARK  189  A    between atoms: _461  and  _462
REMARK  190  A    between atoms: _464  and  _466
REMARK  191  A    between atoms: _466  and  _467
REMARK  192  A    between atoms: _466  and  _469
REMARK  193  A    between atoms: _469  and  _470
REMARK  194  A    between atoms: _476  and  _478
REMARK  195  A    between atoms: _478  and  _479
REMARK  196  A    between atoms: _478  and  _481
REMARK  197  A    between atoms: _481  and  _482
REMARK  198  A    between atoms: _485  and  _487
REMARK  199  A    between atoms: _487  and  _488
REMARK  200  A    between atoms: _487  and  _490
REMARK  201  A    between atoms: _493  and  _495
REMARK  202  A    between atoms: _495  and  _496
REMARK  203  A    between atoms: _495  and  _498
REMARK  204  A    between atoms: _498  and  _499
REMARK  205  A    between atoms: _503  and  _504
REMARK  206  A    between atoms: _509  and  _511
REMARK  207  A    between atoms: _511  and  _512
REMARK  208  A    between atoms: _511  and  _514
REMARK  209  A    between atoms: _514  and  _515
REMARK  210  A    between atoms: _519  and  _520
REMARK  211  A    between atoms: _525  and  _527
REMARK  212  A    between atoms: _527  and  _528
REMARK  213  A    between atoms: _527  and  _530
REMARK  214  A    between atoms: _533  and  _535
REMARK  215  A    between atoms: _535  and  _536
REMARK  216  A    between atoms: _535  and  _538
REMARK  217  A    between atoms: _538  and  _539
REMARK  218  A    between atoms: _544  and  _546
REMARK  219  A    between atoms: _546  and  _547
REMARK  220  A    between atoms: _546  and  _549
REMARK  221  A    between atoms: _549  and  _550
REMARK  222  A    between atoms: _553  and  _555
REMARK  223  A    between atoms: _555  and  _556
REMARK  224  A    between atoms: _555  and  _558
REMARK  225  A    between atoms: _558  and  _559
REMARK  226  A    between atoms: _562  and  _564
REMARK  227  A    between atoms: _564  and  _565
REMARK  228  A    between atoms: _567  and  _569
REMARK  229  A    between atoms: _569  and  _570
REMARK  230  A    between atoms: _569  and  _572
REMARK  231  A    between atoms: _572  and  _573
REMARK  232  A    between atoms: _573  and  _574
REMARK  233  A    between atoms: _574  and  _575
REMARK                            x       y       z     vdW  Elec       q    Type
REMARK                         _______ _______ _______ _____ _____    ______ ____
ROOT
ATOM      1  CA  VAL A   1      16.344   9.406  24.496  0.00  0.00    +0.133 C 
ENDROOT
BRANCH   1   2
ATOM      2  CB  VAL A   1      15.712  10.813  24.453  0.00  0.00    +0.023 C 
ATOM      3  CG2 VAL A   1      14.322  10.778  23.848  0.00  0.00    +0.002 C 
ATOM      4  CG1 VAL A   1      16.603  11.745  23.637  0.00  0.00    +0.002 C 
ENDBRANCH   1   2
BRANCH   1   5
ATOM      5  N   VAL A   1      16.477   8.848  23.174  0.00  0.00    -0.239 NA
ATOM      6  H   VAL A   1      15.634   8.464  22.701  0.00  0.00    +0.142 HD
ENDBRANCH   1   5
BRANCH   1   7
ATOM      7  C   VAL A   1      15.500   8.478  25.361  0.00  0.00    +0.224 C 
ATOM      8  O   VAL A   1      14.783   7.599  24.846  0.00  0.00    -0.287 OA
ENDBRANCH   1   7
TORSDOF 3
REMARK  Name = ../refined-set-2016/3cyx/3cyx_pocket.pdb
REMARK  233 active torsions:
REMARK  status: ('A' for Active; 'I' for Inactive)
REMARK    1  A    between atoms: _1  and  _3
REMARK    2  A    between atoms: _3  and  _4
REMARK    3  A    between atoms: _3  and  _6
REMARK    4  A    between atoms: _6  and  _7
REMARK    5  A    between atoms: _7  and  _8
REMARK    6  A    between atoms: _8  and  _9
REMARK    7  A    between atoms: _18  and  _20
REMARK    8  A    between atoms: _20  and  _21
REMARK    9  A    between atoms: _20  and  _23
REMARK   10  A    between atoms: _23  and  _24
REMARK   11  A    between atoms: _27  and  _29
REMARK   12  A    between atoms: _29  and  _30
REMARK   13  A    between atoms: _29  and  _32
REMARK   14  A    between atoms: _32  and  _33
REMARK   15  A    between atoms: _36  and  _38
REMARK   16  A    between atoms: _38  and  _39
REMARK   17  A    between atoms: _38  and  _41
REMARK   18  A    between atoms: _41  and  _42
REMARK   19  A    between atoms: _45  and  _47
REMARK   20  A    between atoms: _47  and  _48
REMARK   21  A    between atoms: _47  and  _50
REMARK   22  A    between atoms: _50  and  _51
REMARK   23  A    between atoms: _54  and  _56
REMARK   24  A    between atoms: _56  and  _57
REMARK   25  A    between atoms: _59  and  _61
REMARK   26  A    between atoms: _61  and  _62
REMARK   27  A    between atoms: _65  and  _67
REMARK   28  A    between atoms: _67  and  _68
REMARK   29  A    between atoms: _67  and  _70
REMARK   30  A    between atoms: _70  and  _71
REMARK   31  A    between atoms: _74  and  _76
REMARK   32  A    between atoms: _76  and  _77
REMARK   33  A    between atoms: _76  and  _79
REMARK   34  A    between atoms: _79  and  _80
REMARK   35  A    between atoms: _83  and  _85
REMARK   36  A    between atoms: _85  and  _86
REMARK   37  A    between atoms: _85  and  _88
REMARK   38  A    between atoms: _88  and  _89
REMARK   39  A    between atoms: _92  and  _94
REMARK   40  A    between atoms: _94  and  _95
REMARK   41  A    between atoms: _94  and  _97
REMARK   42  A    between atoms: _100  and  _102
REMARK   43  A    between atoms: _102  and  _103
REMARK   44  A    between atoms: _102  and  _105
REMARK   45  A    between atoms: _105  and  _106
REMARK   46  A    between atoms: _106  and  _107
REMARK   47  A    between atoms: _107  and  _108
REMARK   48  A    between atoms: _108  and  _109
REMARK   49  A    between atoms: _113  and  _115
REMARK   50  A    between atoms: _115  and  _116
REMARK   51  A    between atoms: _115  and  _118
REMARK   52  A    between atoms: _118  and  _119
REMARK   53  A    between atoms: _119  and  _120
REMARK   54  A    between atoms: _122  and  _124
REMARK   55  A    between atoms: _124  and  _125
REMARK   56  A    between atoms: _124  and  _127
REMARK   57  A    between atoms: _127  and  _128
REMARK   58  A    between atoms: _131  and  _133
REMARK   59  A    between atoms: _133  and  _134
REMARK   60  A    between atoms: _136  and  _138
REMARK   61  A    between atoms: _138  and  _139
REMARK   62  A    between atoms: _141  and  _143
REMARK   63  A    between atoms: _143  and  _144
REMARK   64  A    between atoms: _143  and  _146
REMARK   65  A    between atoms: _149  and  _151
REMARK   66  A    between atoms: _151  and  _152
REMARK   67  A    between atoms: _154  and  _156
REMARK   68  A    between atoms: _156  and  _157
REMARK   69  A    between atoms: _159  and  _161
REMARK   70  A    between atoms: _161  and  _162
REMARK   71  A    between atoms: _161  and  _164
REMARK   72  A    between atoms: _164  and  _165
REMARK   73  A    between atoms: _171  and  _173
REMARK   74  A    between atoms: _173  and  _174
REMARK   75  A    between atoms: _173  and  _176
REMARK   76  A    between atoms: _176  and  _177
REMARK   77  A    between atoms: _180  and  _182
REMARK   78  A    between atoms: _182  and  _183
REMARK   79  A    between atoms: _182  and  _185
REMARK   80  A    between atoms: _188  and  _190
REMARK   81  A    between atoms: _190  and  _191
REMARK   82  A    between atoms: _190  and  _193
REMARK   83  A    between atoms: _193  and  _194
REMARK   84  A    between atoms: _198  and  _199
REMARK   85  A    between atoms: _204  and  _206
REMARK   86  A    between atoms: _206  and  _207
REMARK   87  A    between atoms: _206  and  _209
REMARK   88  A    between atoms: _209  and  _210
REMARK   89  A    between atoms: _214  and  _215
REMARK   90  A    between atoms: _220  and  _222
REMARK   91  A    between atoms: _222  and  _223
REMARK   92  A    between atoms: _222  and  _225
REMARK   93  A    between atoms: _228  and  _230
REMARK   94  A    between atoms: _230  and  _231
REMARK   95  A    between atoms: _230  and  _233
REMARK   96  A    between atoms: _233  and  _234
REMARK   97  A    between atoms: _239  and  _241
REMARK   98  A    between atoms: _241  and  _242
REMARK   99  A    between atoms: _241  and  _244
REMARK  100  A    between atoms: _244  and  _245
REMARK  101  A    between atoms: _248  and  _250
REMARK  102  A    between atoms: _250  and  _251
REMARK  103  A    between atoms: _250  and  _253
REMARK  104  A    between atoms: _253  and  _254
REMARK  105  A    between atoms: _257  and  _259
REMARK  106  A    between atoms: _259  and  _260
REMARK  107  A    between atoms: _262  and  _264
REMARK  108  A    between atoms: _264  and  _265
REMARK  109  A    between atoms: _264  and  _267
REMARK  110  A    between atoms: _267  and  _268
REMARK  111  A    between atoms: _268  and  _269
REMARK  112  A    between atoms: _269  and  _270
REMARK  113  A    between atoms: _279  and  _281
REMARK  114  A    between atoms: _281  and  _282
REMARK  115  A    between atoms: _281  and  _284
REMARK  116  A    between atoms: _284  and  _285
REMARK  117  A    between atoms: _290  and  _292
REMARK  118  A    between atoms: _292  and  _293
REMARK  119  A    between atoms: _292  and  _295
REMARK  120  A    between atoms: _295  and  _296
REMARK  121  A    between atoms: _296  and  _297
REMARK  122  A    between atoms: _297  and  _298
REMARK  123  A    between atoms: _308  and  _309
REMARK  124  A    between atoms: _314  and  _316
REMARK  125  A    between atoms: _316  and  _317
REMARK  126  A    between atoms: _316  and  _319
REMARK  127  A    between atoms: _319  and  _320
REMARK  128  A    between atoms: _323  and  _325
REMARK  129  A    between atoms: _325  and  _326
REMARK  130  A    between atoms: _325  and  _328
REMARK  131  A    between atoms: _328  and  _329
REMARK  132  A    between atoms: _332  and  _334
REMARK  133  A    between atoms: _334  and  _335
REMARK  134  A    between atoms: _334  and  _337
REMARK  135  A    between atoms: _337  and  _338
REMARK  136  A    between atoms: _341  and  _343
REMARK  137  A    between atoms: _343  and  _344
REMARK  138  A    between atoms: _343  and  _346
REMARK  139  A    between atoms: _346  and  _347
REMARK  140  A    between atoms: _350  and  _352
REMARK  141  A    between atoms: _352  and  _353
REMARK  142  A    between atoms: _352  and  _355
REMARK  143  A    between atoms: _355  and  _356
REMARK  144  A    between atoms: _359  and  _361
REMARK  145  A    between atoms: _361  and  _362
REMARK  146  A    between atoms: _364  and  _366
REMARK  147  A    between atoms: _366  and  _367
REMARK  148  A    between atoms: _370  and  _372
REMARK  149  A    between atoms: _372  and  _373
REMARK  150  A    between atoms: _372  and  _375
REMARK  151  A    between atoms: _375  and  _376
REMARK  152  A    between atoms: _379  and  _381
REMARK  153  A    between atoms: _381  and  _382
REMARK  154  A    between atoms: _381  and  _384
REMARK  155  A    between atoms: _384  and  _385
REMARK  156  A    between atoms: _388  and  _390
REMARK  157  A    between atoms: _390  and  _391
REMARK  158  A    between atoms: _390  and  _393
REMARK  159  A    between atoms: _393  and  _394
REMARK  160  A    between atoms: _397  and  _399
REMARK  161  A    between atoms: _399  and  _400
REMARK  162  A    between atoms: _399  and  _402
REMARK  163  A    between atoms: _405  and  _407
REMARK  164  A    between atoms: _407  and  _408
REMARK  165  A    between atoms: _407  and  _410
REMARK  166  A    between atoms: _410  and  _411
REMARK  167  A    between atoms: _411  and  _412
REMARK  168  A    between atoms: _412  and  _413
REMARK  169  A    between atoms: _413  and  _414
REMARK  170  A    between atoms: _418  and  _420
REMARK  171  A    between atoms: _420  and  _421
REMARK  172  A    between atoms: _420  and  _423
REMARK  173  A    between atoms: _423  and  _424
REMARK  174  A    between atoms: _424  and  _425
REMARK  175  A    between atoms: _427  and  _429
REMARK  176  A    between atoms: _429  and  _430
REMARK  177  A    between atoms: _429  and  _432
REMARK  178  A    between atoms: _432  and  _433
REMARK  179  A    between atoms: _436  and  _438
REMARK  180  A    between atoms: _438  and  _439
REMARK  181  A    between atoms: _441  and  _443
REMARK  182  A    between atoms: _443  and  _444
REMARK  183  A    between atoms: _446  and  _448
REMARK  184  A    between atoms: _448  and  _449
REMARK  185  A    between atoms: _448  and  _451
REMARK  186  A    between atoms: _454  and  _456
REMARK  187  A    between atoms: _456  and  _457
REMARK  188  A    between atoms: _459  and  _461
REMARK  189  A    between atoms: _461  and  _462
REMARK  190  A    between atoms: _464  and  _466
REMARK  191  A    between atoms: _466  and  _467
REMARK  192  A    between atoms: _466  and  _469
REMARK  193  A    between atoms: _469  and  _470
REMARK  194  A    between atoms: _476  and  _478
REMARK  195  A    between atoms: _478  and  _479
REMARK  196  A    between atoms: _478  and  _481
REMARK  197  A    between atoms: _481  and  _482
REMARK  198  A    between atoms: _485  and  _487
REMARK  199  A    between atoms: _487  and  _488
REMARK  200  A    between atoms: _487  and  _490
REMARK  201  A    between atoms: _493  and  _495
REMARK  202  A    between atoms: _495  and  _496
REMARK  203  A    between atoms: _495  and  _498
REMARK  204  A    between atoms: _498  and  _499
REMARK  205  A    between atoms: _503  and  _504
REMARK  206  A    between atoms: _509  and  _511
REMARK  207  A    between atoms: _511  and  _512
REMARK  208  A    between atoms: _511  and  _514
REMARK  209  A    between atoms: _514  and  _515
REMARK  210  A    between atoms: _519  and  _520
REMARK  211  A    between atoms: _525  and  _527
REMARK  212  A    between atoms: _527  and  _528
REMARK  213  A    between atoms: _527  and  _530
REMARK  214  A    between atoms: _533  and  _535
REMARK  215  A    between atoms: _535  and  _536
REMARK  216  A    between atoms: _535  and  _538
REMARK  217  A    between atoms: _538  and  _539
REMARK  218  A    between atoms: _544  and  _546
REMARK  219  A    between atoms: _546  and  _547
REMARK  220  A    between atoms: _546  and  _549
REMARK  221  A    between atoms: _549  and  _550
REMARK  222  A    between atoms: _553  and  _555
REMARK  223  A    between atoms: _555  and  _556
REMARK  224  A    between atoms: _555  and  _558
REMARK  225  A    between atoms: _558  and  _559
REMARK  226  A    between atoms: _562  and  _564
REMARK  227  A    between atoms: _564  and  _565
REMARK  228  A    between atoms: _567  and  _569
REMARK  229  A    between atoms: _569  and  _570
REMARK  230  A    between atoms: _569  and  _572
REMARK  231  A    between atoms: _572  and  _573
REMARK  232  A    between atoms: _573  and  _574
REMARK  233  A    between atoms: _574  and  _575
REMARK                            x       y       z     vdW  Elec       q    Type
REMARK                         _______ _______ _______ _____ _____    ______ ____
ROOT
ATOM      1  CA  LEU A   1      13.304  13.249  27.949  0.00  0.00    +0.133 C 
ENDROOT
BRANCH   1   2
ATOM      2  N   LEU A   1      12.451  14.140  28.687  0.00  0.00    -0.239 NA
ATOM      3  H   LEU A   1      12.349  15.116  28.343  0.00  0.00    +0.142 HD
ENDBRANCH   1   2
BRANCH   1   4
ATOM      4  C   LEU A   1      14.748  13.465  28.401  0.00  0.00    +0.224 C 
ATOM      5  O   LEU A   1      15.173  14.588  28.642  0.00  0.00    -0.287 OA
ENDBRANCH   1   4
BRANCH   1   6
ATOM      6  CB  LEU A   1      13.159  13.476  26.447  0.00  0.00    +0.025 C 
BRANCH   6   7
ATOM      7  CG  LEU A   1      11.761  13.586  25.875  0.00  0.00    +0.002 C 
ATOM      8  CD2 LEU A   1      10.970  12.314  26.180  0.00  0.00    +0.000 C 
ATOM      9  CD1 LEU A   1      11.758  13.887  24.408  0.00  0.00    +0.000 C 
ENDBRANCH   6   7
ENDBRANCH   1   6
TORSDOF 4
REMARK  Name = ../refined-set-2016/3cyx/3cyx_pocket.pdb
REMARK  233 active torsions:
REMARK  status: ('A' for Active; 'I' for Inactive)
REMARK    1  A    between atoms: _1  and  _3
REMARK    2  A    between atoms: _3  and  _4
REMARK    3  A    between atoms: _3  and  _6
REMARK    4  A    between atoms: _6  and  _7
REMARK    5  A    between atoms: _7  and  _8
REMARK    6  A    between atoms: _8  and  _9
REMARK    7  A    between atoms: _18  and  _20
REMARK    8  A    between atoms: _20  and  _21
REMARK    9  A    between atoms: _20  and  _23
REMARK   10  A    between atoms: _23  and  _24
REMARK   11  A    between atoms: _27  and  _29
REMARK   12  A    between atoms: _29  and  _30
REMARK   13  A    between atoms: _29  and  _32
REMARK   14  A    between atoms: _32  and  _33
REMARK   15  A    between atoms: _36  and  _38
REMARK   16  A    between atoms: _38  and  _39
REMARK   17  A    between atoms: _38  and  _41
REMARK   18  A    between atoms: _41  and  _42
REMARK   19  A    between atoms: _45  and  _47
REMARK   20  A    between atoms: _47  and  _48
REMARK   21  A    between atoms: _47  and  _50
REMARK   22  A    between atoms: _50  and  _51
REMARK   23  A    between atoms: _54  and  _56
REMARK   24  A    between atoms: _56  and  _57
REMARK   25  A    between atoms: _59  and  _61
REMARK   26  A    between atoms: _61  and  _62
REMARK   27  A    between atoms: _65  and  _67
REMARK   28  A    between atoms: _67  and  _68
REMARK   29  A    between atoms: _67  and  _70
REMARK   30  A    between atoms: _70  and  _71
REMARK   31  A    between atoms: _74  and  _76
REMARK   32  A    between atoms: _76  and  _77
REMARK   33  A    between atoms: _76  and  _79
REMARK   34  A    between atoms: _79  and  _80
REMARK   35  A    between atoms: _83  and  _85
REMARK   36  A    between atoms: _85  and  _86
REMARK   37  A    between atoms: _85  and  _88
REMARK   38  A    between atoms: _88  and  _89
REMARK   39  A    between atoms: _92  and  _94
REMARK   40  A    between atoms: _94  and  _95
REMARK   41  A    between atoms: _94  and  _97
REMARK   42  A    between atoms: _100  and  _102
REMARK   43  A    between atoms: _102  and  _103
REMARK   44  A    between atoms: _102  and  _105
REMARK   45  A    between atoms: _105  and  _106
REMARK   46  A    between atoms: _106  and  _107
REMARK   47  A    between atoms: _107  and  _108
REMARK   48  A    between atoms: _108  and  _109
REMARK   49  A    between atoms: _113  and  _115
REMARK   50  A    between atoms: _115  and  _116
REMARK   51  A    between atoms: _115  and  _118
REMARK   52  A    between atoms: _118  and  _119
REMARK   53  A    between atoms: _119  and  _120
REMARK   54  A    between atoms: _122  and  _124
REMARK   55  A    between atoms: _124  and  _125
REMARK   56  A    between atoms: _124  and  _127
REMARK   57  A    between atoms: _127  and  _128
REMARK   58  A    between atoms: _131  and  _133
REMARK   59  A    between atoms: _133  and  _134
REMARK   60  A    between atoms: _136  and  _138
REMARK   61  A    between atoms: _138  and  _139
REMARK   62  A    between atoms: _141  and  _143
REMARK   63  A    between atoms: _143  and  _144
REMARK   64  A    between atoms: _143  and  _146
REMARK   65  A    between atoms: _149  and  _151
REMARK   66  A    between atoms: _151  and  _152
REMARK   67  A    between atoms: _154  and  _156
REMARK   68  A    between atoms: _156  and  _157
REMARK   69  A    between atoms: _159  and  _161
REMARK   70  A    between atoms: _161  and  _162
REMARK   71  A    between atoms: _161  and  _164
REMARK   72  A    between atoms: _164  and  _165
REMARK   73  A    between atoms: _171  and  _173
REMARK   74  A    between atoms: _173  and  _174
REMARK   75  A    between atoms: _173  and  _176
REMARK   76  A    between atoms: _176  and  _177
REMARK   77  A    between atoms: _180  and  _182
REMARK   78  A    between atoms: _182  and  _183
REMARK   79  A    between atoms: _182  and  _185
REMARK   80  A    between atoms: _188  and  _190
REMARK   81  A    between atoms: _190  and  _191
REMARK   82  A    between atoms: _190  and  _193
REMARK   83  A    between atoms: _193  and  _194
REMARK   84  A    between atoms: _198  and  _199
REMARK   85  A    between atoms: _204  and  _206
REMARK   86  A    between atoms: _206  and  _207
REMARK   87  A    between atoms: _206  and  _209
REMARK   88  A    between atoms: _209  and  _210
REMARK   89  A    between atoms: _214  and  _215
REMARK   90  A    between atoms: _220  and  _222
REMARK   91  A    between atoms: _222  and  _223
REMARK   92  A    between atoms: _222  and  _225
REMARK   93  A    between atoms: _228  and  _230
REMARK   94  A    between atoms: _230  and  _231
REMARK   95  A    between atoms: _230  and  _233
REMARK   96  A    between atoms: _233  and  _234
REMARK   97  A    between atoms: _239  and  _241
REMARK   98  A    between atoms: _241  and  _242
REMARK   99  A    between atoms: _241  and  _244
REMARK  100  A    between atoms: _244  and  _245
REMARK  101  A    between atoms: _248  and  _250
REMARK  102  A    between atoms: _250  and  _251
REMARK  103  A    between atoms: _250  and  _253
REMARK  104  A    between atoms: _253  and  _254
REMARK  105  A    between atoms: _257  and  _259
REMARK  106  A    between atoms: _259  and  _260
REMARK  107  A    between atoms: _262  and  _264
REMARK  108  A    between atoms: _264  and  _265
REMARK  109  A    between atoms: _264  and  _267
REMARK  110  A    between atoms: _267  and  _268
REMARK  111  A    between atoms: _268  and  _269
REMARK  112  A    between atoms: _269  and  _270
REMARK  113  A    between atoms: _279  and  _281
REMARK  114  A    between atoms: _281  and  _282
REMARK  115  A    between atoms: _281  and  _284
REMARK  116  A    between atoms: _284  and  _285
REMARK  117  A    between atoms: _290  and  _292
REMARK  118  A    between atoms: _292  and  _293
REMARK  119  A    between atoms: _292  and  _295
REMARK  120  A    between atoms: _295  and  _296
REMARK  121  A    between atoms: _296  and  _297
REMARK  122  A    between atoms: _297  and  _298
REMARK  123  A    between atoms: _308  and  _309
REMARK  124  A    between atoms: _314  and  _316
REMARK  125  A    between atoms: _316  and  _317
REMARK  126  A    between atoms: _316  and  _319
REMARK  127  A    between atoms: _319  and  _320
REMARK  128  A    between atoms: _323  and  _325
REMARK  129  A    between atoms: _325  and  _326
REMARK  130  A    between atoms: _325  and  _328
REMARK  131  A    between atoms: _328  and  _329
REMARK  132  A    between atoms: _332  and  _334
REMARK  133  A    between atoms: _334  and  _335
REMARK  134  A    between atoms: _334  and  _337
REMARK  135  A    between atoms: _337  and  _338
REMARK  136  A    between atoms: _341  and  _343
REMARK  137  A    between atoms: _343  and  _344
REMARK  138  A    between atoms: _343  and  _346
REMARK  139  A    between atoms: _346  and  _347
REMARK  140  A    between atoms: _350  and  _352
REMARK  141  A    between atoms: _352  and  _353
REMARK  142  A    between atoms: _352  and  _355
REMARK  143  A    between atoms: _355  and  _356
REMARK  144  A    between atoms: _359  and  _361
REMARK  145  A    between atoms: _361  and  _362
REMARK  146  A    between atoms: _364  and  _366
REMARK  147  A    between atoms: _366  and  _367
REMARK  148  A    between atoms: _370  and  _372
REMARK  149  A    between atoms: _372  and  _373
REMARK  150  A    between atoms: _372  and  _375
REMARK  151  A    between atoms: _375  and  _376
REMARK  152  A    between atoms: _379  and  _381
REMARK  153  A    between atoms: _381  and  _382
REMARK  154  A    between atoms: _381  and  _384
REMARK  155  A    between atoms: _384  and  _385
REMARK  156  A    between atoms: _388  and  _390
REMARK  157  A    between atoms: _390  and  _391
REMARK  158  A    between atoms: _390  and  _393
REMARK  159  A    between atoms: _393  and  _394
REMARK  160  A    between atoms: _397  and  _399
REMARK  161  A    between atoms: _399  and  _400
REMARK  162  A    between atoms: _399  and  _402
REMARK  163  A    between atoms: _405  and  _407
REMARK  164  A    between atoms: _407  and  _408
REMARK  165  A    between atoms: _407  and  _410
REMARK  166  A    between atoms: _410  and  _411
REMARK  167  A    between atoms: _411  and  _412
REMARK  168  A    between atoms: _412  and  _413
REMARK  169  A    between atoms: _413  and  _414
REMARK  170  A    between atoms: _418  and  _420
REMARK  171  A    between atoms: _420  and  _421
REMARK  172  A    between atoms: _420  and  _423
REMARK  173  A    between atoms: _423  and  _424
REMARK  174  A    between atoms: _424  and  _425
REMARK  175  A    between atoms: _427  and  _429
REMARK  176  A    between atoms: _429  and  _430
REMARK  177  A    between atoms: _429  and  _432
REMARK  178  A    between atoms: _432  and  _433
REMARK  179  A    between atoms: _436  and  _438
REMARK  180  A    between atoms: _438  and  _439
REMARK  181  A    between atoms: _441  and  _443
REMARK  182  A    between atoms: _443  and  _444
REMARK  183  A    between atoms: _446  and  _448
REMARK  184  A    between atoms: _448  and  _449
REMARK  185  A    between atoms: _448  and  _451
REMARK  186  A    between atoms: _454  and  _456
REMARK  187  A    between atoms: _456  and  _457
REMARK  188  A    between atoms: _459  and  _461
REMARK  189  A    between atoms: _461  and  _462
REMARK  190  A    between atoms: _464  and  _466
REMARK  191  A    between atoms: _466  and  _467
REMARK  192  A    between atoms: _466  and  _469
REMARK  193  A    between atoms: _469  and  _470
REMARK  194  A    between atoms: _476  and  _478
REMARK  195  A    between atoms: _478  and  _479
REMARK  196  A    between atoms: _478  and  _481
REMARK  197  A    between atoms: _481  and  _482
REMARK  198  A    between atoms: _485  and  _487
REMARK  199  A    between atoms: _487  and  _488
REMARK  200  A    between atoms: _487  and  _490
REMARK  201  A    between atoms: _493  and  _495
REMARK  202  A    between atoms: _495  and  _496
REMARK  203  A    between atoms: _495  and  _498
REMARK  204  A    between atoms: _498  and  _499
REMARK  205  A    between atoms: _503  and  _504
REMARK  206  A    between atoms: _509  and  _511
REMARK  207  A    between atoms: _511  and  _512
REMARK  208  A    between atoms: _511  and  _514
REMARK  209  A    between atoms: _514  and  _515
REMARK  210  A    between atoms: _519  and  _520
REMARK  211  A    between atoms: _525  and  _527
REMARK  212  A    between atoms: _527  and  _528
REMARK  213  A    between atoms: _527  and  _530
REMARK  214  A    between atoms: _533  and  _535
REMARK  215  A    between atoms: _535  and  _536
REMARK  216  A    between atoms: _535  and  _538
REMARK  217  A    between atoms: _538  and  _539
REMARK  218  A    between atoms: _544  and  _546
REMARK  219  A    between atoms: _546  and  _547
REMARK  220  A    between atoms: _546  and  _549
REMARK  221  A    between atoms: _549  and  _550
REMARK  222  A    between atoms: _553  and  _555
REMARK  223  A    between atoms: _555  and  _556
REMARK  224  A    between atoms: _555  and  _558
REMARK  225  A    between atoms: _558  and  _559
REMARK  226  A    between atoms: _562  and  _564
REMARK  227  A    between atoms: _564  and  _565
REMARK  228  A    between atoms: _567  and  _569
REMARK  229  A    between atoms: _569  and  _570
REMARK  230  A    between atoms: _569  and  _572
REMARK  231  A    between atoms: _572  and  _573
REMARK  232  A    between atoms: _573  and  _574
REMARK  233  A    between atoms: _574  and  _575
REMARK                            x       y       z     vdW  Elec       q    Type
REMARK                         _______ _______ _______ _____ _____    ______ ____
ROOT
ATOM      1  C   ASN A   5      17.892  22.299  27.667  0.00  0.00    +0.241 C 
ATOM      2  O   ASN A   5      18.118  23.508  27.652  0.00  0.00    -0.273 OA
ATOM      3  N   ILE A   6      16.820  21.699  27.158  0.00  0.00    -0.297 N 
ATOM      4  H   ILE A   6      16.723  20.671  27.284  0.00  0.00    +0.150 HD
ENDROOT
BRANCH   1   5
ATOM      5  CA  ASN A   5      18.958  21.397  28.286  0.00  0.00    +0.158 C 
BRANCH   5   7
ATOM      6  C   VAL A   4      20.521  21.366  26.436  0.00  0.00    +0.241 C 
ATOM      7  N   ASN A   5      20.253  21.716  27.683  0.00  0.00    -0.297 N 
ATOM      8  H   ASN A   5      20.970  22.223  28.241  0.00  0.00    +0.150 HD
ATOM      9  O   VAL A   4      19.772  20.680  25.773  0.00  0.00    -0.273 OA
BRANCH   6  10
ATOM     10  CA  VAL A   4      21.816  21.888  25.799  0.00  0.00    +0.149 C 
BRANCH  10  13
ATOM     11  C   PRO A   3      23.629  20.533  24.810  0.00  0.00    +0.241 C 
ATOM     12  O   PRO A   3      24.553  21.089  25.420  0.00  0.00    -0.273 OA
ATOM     13  N   VAL A   4      22.356  20.855  24.939  0.00  0.00    -0.297 N 
ATOM     14  H   VAL A   4      21.675  20.315  24.368  0.00  0.00    +0.150 HD
BRANCH  11  18
ATOM     15  C   THR A   2      22.481  17.691  24.242  0.00  0.00    +0.246 C 
ATOM     16  O   THR A   2      23.026  17.572  25.338  0.00  0.00    -0.273 OA
ATOM     17  N   PRO A   3      22.883  18.611  23.354  0.00  0.00    -0.272 N 
ATOM     18  CA  PRO A   3      23.976  19.506  23.753  0.00  0.00    +0.152 C 
ATOM     19  CB  PRO A   3      24.265  20.246  22.430  0.00  0.00    +0.031 C 
ATOM     20  CG  PRO A   3      23.679  19.424  21.358  0.00  0.00    +0.024 C 
ATOM     21  CD  PRO A   3      22.489  18.748  21.949  0.00  0.00    +0.094 C 
BRANCH  15  22
ATOM     22  CA  THR A   2      21.306  16.794  23.887  0.00  0.00    +0.176 C 
BRANCH  22  24
ATOM     23  C   PRO A   1      22.294  14.591  23.650  0.00  0.00    +0.239 C 
ATOM     24  N   THR A   2      21.529  15.458  24.344  0.00  0.00    -0.295 N 
ATOM     25  H   THR A   2      21.090  15.147  25.234  0.00  0.00    +0.150 HD
ATOM     26  O   PRO A   1      22.748  14.868  22.539  0.00  0.00    -0.274 OA
BRANCH  23  28
ATOM     27  N   PRO A   1      21.428  12.556  24.877  0.00  0.00    -0.210 NA
ATOM     28  CA  PRO A   1      22.592  13.331  24.434  0.00  0.00    +0.149 C 
ATOM     29  CB  PRO A   1      23.353  12.287  23.594  0.00  0.00    +0.028 C 
ATOM     30  CG  PRO A   1      22.276  11.465  22.967  0.00  0.00    +0.021 C 
ATOM     31  CD  PRO A   1      21.258  11.318  24.077  0.00  0.00    +0.089 C 
ENDBRANCH  23  28
ENDBRANCH  22  24
BRANCH  22  32
ATOM     32  CB  THR A   2      20.022  17.388  24.484  0.00  0.00    +0.137 C 
ATOM     33  CG2 THR A   2      19.987  17.490  25.989  0.00  0.00    +0.034 C 
BRANCH  32  34
ATOM     34  OG1 THR A   2      19.869  18.674  23.889  0.00  0.00    -0.382 OA
ATOM     35  HG1 THR A   2      19.050  19.104  24.242  0.00  0.00    +0.210 HD
ENDBRANCH  32  34
ENDBRANCH  22  32
ENDBRANCH  15  22
ENDBRANCH  11  18
ENDBRANCH  10  13
BRANCH  10  36
ATOM     36  CB  VAL A   4      21.541  23.179  25.008  0.00  0.00    +0.027 C 
ATOM     37  CG2 VAL A   4      20.910  24.294  25.822  0.00  0.00    +0.002 C 
ATOM     38  CG1 VAL A   4      22.853  23.705  24.384  0.00  0.00    +0.002 C 
ENDBRANCH  10  36
ENDBRANCH   6  10
ENDBRANCH   5   7
BRANCH   5  39
ATOM     39  CB  ASN A   5      18.945  21.580  29.793  0.00  0.00    +0.114 C 
BRANCH  39  40
ATOM     40  CG  ASN A   5      19.966  20.738  30.509  0.00  0.00    +0.222 C 
ATOM     41  ND2 ASN A   5      20.596  21.300  31.520  0.00  0.00    -0.329 N 
ATOM     42 HD21 ASN A   5      21.284  20.751  32.074  0.00  0.00    +0.145 HD
ATOM     43 HD22 ASN A   5      20.406  22.293  31.764  0.00  0.00    +0.145 HD
ATOM     44  OD1 ASN A   5      20.141  19.569  30.164  0.00  0.00    -0.275 OA
ENDBRANCH  39  40
ENDBRANCH   5  39
ENDBRANCH   1   5
BRANCH   3  45
ATOM     45  CA  ILE A   6      15.771  22.410  26.430  0.00  0.00    +0.149 C 
BRANCH  45  46
ATOM     46  C   ILE A   6      14.428  22.231  27.101  0.00  0.00    +0.241 C 
ATOM     47  N   ILE A   7      13.736  23.321  27.369  0.00  0.00    -0.297 N 
ATOM     48  H   ILE A   7      14.208  24.239  27.238  0.00  0.00    +0.150 HD
ATOM     49  O   ILE A   6      14.008  21.091  27.300  0.00  0.00    -0.273 OA
BRANCH  47  50
ATOM     50  CA  ILE A   7      12.363  23.328  27.833  0.00  0.00    +0.149 C 
BRANCH  50  51
ATOM     51  C   ILE A   7      11.472  23.592  26.624  0.00  0.00    +0.241 C 
ATOM     52  N   GLY A   8      10.725  22.591  26.211  0.00  0.00    -0.295 N 
ATOM     53  H   GLY A   8      10.740  21.709  26.762  0.00  0.00    +0.150 HD
ATOM     54  O   ILE A   7      11.510  24.697  26.076  0.00  0.00    -0.273 OA
BRANCH  52  55
ATOM     55  CA  GLY A   8       9.889  22.644  25.042  0.00  0.00    +0.176 C 
BRANCH  55  56
ATOM     56  C   GLY A   8       8.447  22.952  25.350  0.00  0.00    +0.243 C 
ATOM     57  O   GLY A   8       8.073  23.194  26.499  0.00  0.00    -0.273 OA
ATOM     58  N   ARG A   9       7.614  22.899  24.319  0.00  0.00    -0.298 N 
ATOM     59  H   ARG A   9       7.941  22.513  23.410  0.00  0.00    +0.150 HD
BRANCH  58  60
ATOM     60  CA  ARG A   9       6.243  23.378  24.450  0.00  0.00    +0.137 C 
BRANCH  60  61
ATOM     61  C   ARG A   9       5.418  22.586  25.430  0.00  0.00    +0.227 C 
ATOM     62  O   ARG A   9       4.499  23.160  26.048  0.00  0.00    -0.286 OA
ENDBRANCH  60  61
BRANCH  60  63
ATOM     63  CB  ARG A   9       5.564  23.420  23.062  0.00  0.00    +0.031 C 
BRANCH  63  64
ATOM     64  CG  ARG A   9       6.126  24.462  22.136  0.00  0.00    +0.045 C 
BRANCH  64  65
ATOM     65  CD  ARG A   9       5.364  24.670  20.861  0.00  0.00    +0.174 C 
BRANCH  65  66
ATOM     66  NE  ARG A   9       5.379  23.431  20.058  0.00  0.00    -0.265 N 
ATOM     67  CZ  ARG A   9       4.434  22.515  20.047  0.00  0.00    +0.342 C 
ATOM     68  NH2 ARG A   9       3.302  22.622  20.707  0.00  0.00    -0.292 N 
ATOM     69 HH21 ARG A   9       3.113  23.469  21.281  0.00  0.00    +0.255 HD
ATOM     70 HH22 ARG A   9       2.596  21.860  20.655  0.00  0.00    +0.255 HD
ATOM     71  NH1 ARG A   9       4.636  21.450  19.296  0.00  0.00    -0.292 N 
ATOM     72 HH11 ARG A   9       3.918  20.699  19.255  0.00  0.00    +0.255 HD
ATOM     73 HH12 ARG A   9       5.513  21.361  18.745  0.00  0.00    +0.255 HD
ATOM     74  HE  ARG A   9       6.207  23.268  19.449  0.00  0.00    +0.259 HD
ENDBRANCH  65  66
ENDBRANCH  64  65
ENDBRANCH  63  64
ENDBRANCH  60  63
ENDBRANCH  58  60
ENDBRANCH  55  56
ENDBRANCH  52  55
ENDBRANCH  50  51
BRANCH  50  75
ATOM     75  CB  ILE A   7      12.105  24.353  28.917  0.00  0.00    +0.027 C 
ATOM     76  CG2 ILE A   7      10.659  24.299  29.390  0.00  0.00    +0.002 C 
BRANCH  75  77
ATOM     77  CG1 ILE A   7      13.073  24.216  30.098  0.00  0.00    +0.002 C 
ATOM     78  CD1 ILE A   7      13.173  22.867  30.717  0.00  0.00    +0.000 C 
ENDBRANCH  75  77
ENDBRANCH  50  75
ENDBRANCH  47  50
ENDBRANCH  45  46
BRANCH  45  79
ATOM     79  CB  ILE A   6      15.787  22.023  24.931  0.00  0.00    +0.027 C 
ATOM     80  CG2 ILE A   6      14.619  22.590  24.164  0.00  0.00    +0.002 C 
BRANCH  79  81
ATOM     81  CG1 ILE A   6      17.118  22.422  24.299  0.00  0.00    +0.002 C 
ATOM     82  CD1 ILE A   6      17.600  21.560  23.187  0.00  0.00    +0.000 C 
ENDBRANCH  79  81
ENDBRANCH  45  79
ENDBRANCH   3  45
TORSDOF 29
REMARK  Name = ../refined-set-2016/3cyx/3cyx_pocket.pdb
REMARK  233 active torsions:
REMARK  status: ('A' for Active; 'I' for Inactive)
REMARK    1  A    between atoms: _1  and  _3
REMARK    2  A    between atoms: _3  and  _4
REMARK    3  A    between atoms: _3  and  _6
REMARK    4  A    between atoms: _6  and  _7
REMARK    5  A    between atoms: _7  and  _8
REMARK    6  A    between atoms: _8  and  _9
REMARK    7  A    between atoms: _18  and  _20
REMARK    8  A    between atoms: _20  and  _21
REMARK    9  A    between atoms: _20  and  _23
REMARK   10  A    between atoms: _23  and  _24
REMARK   11  A    between atoms: _27  and  _29
REMARK   12  A    between atoms: _29  and  _30
REMARK   13  A    between atoms: _29  and  _32
REMARK   14  A    between atoms: _32  and  _33
REMARK   15  A    between atoms: _36  and  _38
REMARK   16  A    between atoms: _38  and  _39
REMARK   17  A    between atoms: _38  and  _41
REMARK   18  A    between atoms: _41  and  _42
REMARK   19  A    between atoms: _45  and  _47
REMARK   20  A    between atoms: _47  and  _48
REMARK   21  A    between atoms: _47  and  _50
REMARK   22  A    between atoms: _50  and  _51
REMARK   23  A    between atoms: _54  and  _56
REMARK   24  A    between atoms: _56  and  _57
REMARK   25  A    between atoms: _59  and  _61
REMARK   26  A    between atoms: _61  and  _62
REMARK   27  A    between atoms: _65  and  _67
REMARK   28  A    between atoms: _67  and  _68
REMARK   29  A    between atoms: _67  and  _70
REMARK   30  A    between atoms: _70  and  _71
REMARK   31  A    between atoms: _74  and  _76
REMARK   32  A    between atoms: _76  and  _77
REMARK   33  A    between atoms: _76  and  _79
REMARK   34  A    between atoms: _79  and  _80
REMARK   35  A    between atoms: _83  and  _85
REMARK   36  A    between atoms: _85  and  _86
REMARK   37  A    between atoms: _85  and  _88
REMARK   38  A    between atoms: _88  and  _89
REMARK   39  A    between atoms: _92  and  _94
REMARK   40  A    between atoms: _94  and  _95
REMARK   41  A    between atoms: _94  and  _97
REMARK   42  A    between atoms: _100  and  _102
REMARK   43  A    between atoms: _102  and  _103
REMARK   44  A    between atoms: _102  and  _105
REMARK   45  A    between atoms: _105  and  _106
REMARK   46  A    between atoms: _106  and  _107
REMARK   47  A    between atoms: _107  and  _108
REMARK   48  A    between atoms: _108  and  _109
REMARK   49  A    between atoms: _113  and  _115
REMARK   50  A    between atoms: _115  and  _116
REMARK   51  A    between atoms: _115  and  _118
REMARK   52  A    between atoms: _118  and  _119
REMARK   53  A    between atoms: _119  and  _120
REMARK   54  A    between atoms: _122  and  _124
REMARK   55  A    between atoms: _124  and  _125
REMARK   56  A    between atoms: _124  and  _127
REMARK   57  A    between atoms: _127  and  _128
REMARK   58  A    between atoms: _131  and  _133
REMARK   59  A    between atoms: _133  and  _134
REMARK   60  A    between atoms: _136  and  _138
REMARK   61  A    between atoms: _138  and  _139
REMARK   62  A    between atoms: _141  and  _143
REMARK   63  A    between atoms: _143  and  _144
REMARK   64  A    between atoms: _143  and  _146
REMARK   65  A    between atoms: _149  and  _151
REMARK   66  A    between atoms: _151  and  _152
REMARK   67  A    between atoms: _154  and  _156
REMARK   68  A    between atoms: _156  and  _157
REMARK   69  A    between atoms: _159  and  _161
REMARK   70  A    between atoms: _161  and  _162
REMARK   71  A    between atoms: _161  and  _164
REMARK   72  A    between atoms: _164  and  _165
REMARK   73  A    between atoms: _171  and  _173
REMARK   74  A    between atoms: _173  and  _174
REMARK   75  A    between atoms: _173  and  _176
REMARK   76  A    between atoms: _176  and  _177
REMARK   77  A    between atoms: _180  and  _182
REMARK   78  A    between atoms: _182  and  _183
REMARK   79  A    between atoms: _182  and  _185
REMARK   80  A    between atoms: _188  and  _190
REMARK   81  A    between atoms: _190  and  _191
REMARK   82  A    between atoms: _190  and  _193
REMARK   83  A    between atoms: _193  and  _194
REMARK   84  A    between atoms: _198  and  _199
REMARK   85  A    between atoms: _204  and  _206
REMARK   86  A    between atoms: _206  and  _207
REMARK   87  A    between atoms: _206  and  _209
REMARK   88  A    between atoms: _209  and  _210
REMARK   89  A    between atoms: _214  and  _215
REMARK   90  A    between atoms: _220  and  _222
REMARK   91  A    between atoms: _222  and  _223
REMARK   92  A    between atoms: _222  and  _225
REMARK   93  A    between atoms: _228  and  _230
REMARK   94  A    between atoms: _230  and  _231
REMARK   95  A    between atoms: _230  and  _233
REMARK   96  A    between atoms: _233  and  _234
REMARK   97  A    between atoms: _239  and  _241
REMARK   98  A    between atoms: _241  and  _242
REMARK   99  A    between atoms: _241  and  _244
REMARK  100  A    between atoms: _244  and  _245
REMARK  101  A    between atoms: _248  and  _250
REMARK  102  A    between atoms: _250  and  _251
REMARK  103  A    between atoms: _250  and  _253
REMARK  104  A    between atoms: _253  and  _254
REMARK  105  A    between atoms: _257  and  _259
REMARK  106  A    between atoms: _259  and  _260
REMARK  107  A    between atoms: _262  and  _264
REMARK  108  A    between atoms: _264  and  _265
REMARK  109  A    between atoms: _264  and  _267
REMARK  110  A    between atoms: _267  and  _268
REMARK  111  A    between atoms: _268  and  _269
REMARK  112  A    between atoms: _269  and  _270
REMARK  113  A    between atoms: _279  and  _281
REMARK  114  A    between atoms: _281  and  _282
REMARK  115  A    between atoms: _281  and  _284
REMARK  116  A    between atoms: _284  and  _285
REMARK  117  A    between atoms: _290  and  _292
REMARK  118  A    between atoms: _292  and  _293
REMARK  119  A    between atoms: _292  and  _295
REMARK  120  A    between atoms: _295  and  _296
REMARK  121  A    between atoms: _296  and  _297
REMARK  122  A    between atoms: _297  and  _298
REMARK  123  A    between atoms: _308  and  _309
REMARK  124  A    between atoms: _314  and  _316
REMARK  125  A    between atoms: _316  and  _317
REMARK  126  A    between atoms: _316  and  _319
REMARK  127  A    between atoms: _319  and  _320
REMARK  128  A    between atoms: _323  and  _325
REMARK  129  A    between atoms: _325  and  _326
REMARK  130  A    between atoms: _325  and  _328
REMARK  131  A    between atoms: _328  and  _329
REMARK  132  A    between atoms: _332  and  _334
REMARK  133  A    between atoms: _334  and  _335
REMARK  134  A    between atoms: _334  and  _337
REMARK  135  A    between atoms: _337  and  _338
REMARK  136  A    between atoms: _341  and  _343
REMARK  137  A    between atoms: _343  and  _344
REMARK  138  A    between atoms: _343  and  _346
REMARK  139  A    between atoms: _346  and  _347
REMARK  140  A    between atoms: _350  and  _352
REMARK  141  A    between atoms: _352  and  _353
REMARK  142  A    between atoms: _352  and  _355
REMARK  143  A    between atoms: _355  and  _356
REMARK  144  A    between atoms: _359  and  _361
REMARK  145  A    between atoms: _361  and  _362
REMARK  146  A    between atoms: _364  and  _366
REMARK  147  A    between atoms: _366  and  _367
REMARK  148  A    between atoms: _370  and  _372
REMARK  149  A    between atoms: _372  and  _373
REMARK  150  A    between atoms: _372  and  _375
REMARK  151  A    between atoms: _375  and  _376
REMARK  152  A    between atoms: _379  and  _381
REMARK  153  A    between atoms: _381  and  _382
REMARK  154  A    between atoms: _381  and  _384
REMARK  155  A    between atoms: _384  and  _385
REMARK  156  A    between atoms: _388  and  _390
REMARK  157  A    between atoms: _390  and  _391
REMARK  158  A    between atoms: _390  and  _393
REMARK  159  A    between atoms: _393  and  _394
REMARK  160  A    between atoms: _397  and  _399
REMARK  161  A    between atoms: _399  and  _400
REMARK  162  A    between atoms: _399  and  _402
REMARK  163  A    between atoms: _405  and  _407
REMARK  164  A    between atoms: _407  and  _408
REMARK  165  A    between atoms: _407  and  _410
REMARK  166  A    between atoms: _410  and  _411
REMARK  167  A    between atoms: _411  and  _412
REMARK  168  A    between atoms: _412  and  _413
REMARK  169  A    between atoms: _413  and  _414
REMARK  170  A    between atoms: _418  and  _420
REMARK  171  A    between atoms: _420  and  _421
REMARK  172  A    between atoms: _420  and  _423
REMARK  173  A    between atoms: _423  and  _424
REMARK  174  A    between atoms: _424  and  _425
REMARK  175  A    between atoms: _427  and  _429
REMARK  176  A    between atoms: _429  and  _430
REMARK  177  A    between atoms: _429  and  _432
REMARK  178  A    between atoms: _432  and  _433
REMARK  179  A    between atoms: _436  and  _438
REMARK  180  A    between atoms: _438  and  _439
REMARK  181  A    between atoms: _441  and  _443
REMARK  182  A    between atoms: _443  and  _444
REMARK  183  A    between atoms: _446  and  _448
REMARK  184  A    between atoms: _448  and  _449
REMARK  185  A    between atoms: _448  and  _451
REMARK  186  A    between atoms: _454  and  _456
REMARK  187  A    between atoms: _456  and  _457
REMARK  188  A    between atoms: _459  and  _461
REMARK  189  A    between atoms: _461  and  _462
REMARK  190  A    between atoms: _464  and  _466
REMARK  191  A    between atoms: _466  and  _467
REMARK  192  A    between atoms: _466  and  _469
REMARK  193  A    between atoms: _469  and  _470
REMARK  194  A    between atoms: _476  and  _478
REMARK  195  A    between atoms: _478  and  _479
REMARK  196  A    between atoms: _478  and  _481
REMARK  197  A    between atoms: _481  and  _482
REMARK  198  A    between atoms: _485  and  _487
REMARK  199  A    between atoms: _487  and  _488
REMARK  200  A    between atoms: _487  and  _490
REMARK  201  A    between atoms: _493  and  _495
REMARK  202  A    between atoms: _495  and  _496
REMARK  203  A    between atoms: _495  and  _498
REMARK  204  A    between atoms: _498  and  _499
REMARK  205  A    between atoms: _503  and  _504
REMARK  206  A    between atoms: _509  and  _511
REMARK  207  A    between atoms: _511  and  _512
REMARK  208  A    between atoms: _511  and  _514
REMARK  209  A    between atoms: _514  and  _515
REMARK  210  A    between atoms: _519  and  _520
REMARK  211  A    between atoms: _525  and  _527
REMARK  212  A    between atoms: _527  and  _528
REMARK  213  A    between atoms: _527  and  _530
REMARK  214  A    between atoms: _533  and  _535
REMARK  215  A    between atoms: _535  and  _536
REMARK  216  A    between atoms: _535  and  _538
REMARK  217  A    between atoms: _538  and  _539
REMARK  218  A    between atoms: _544  and  _546
REMARK  219  A    between atoms: _546  and  _547
REMARK  220  A    between atoms: _546  and  _549
REMARK  221  A    between atoms: _549  and  _550
REMARK  222  A    between atoms: _553  and  _555
REMARK  223  A    between atoms: _555  and  _556
REMARK  224  A    between atoms: _555  and  _558
REMARK  225  A    between atoms: _558  and  _559
REMARK  226  A    between atoms: _562  and  _564
REMARK  227  A    between atoms: _564  and  _565
REMARK  228  A    between atoms: _567  and  _569
REMARK  229  A    between atoms: _569  and  _570
REMARK  230  A    between atoms: _569  and  _572
REMARK  231  A    between atoms: _572  and  _573
REMARK  232  A    between atoms: _573  and  _574
REMARK  233  A    between atoms: _574  and  _575
REMARK                            x       y       z     vdW  Elec       q    Type
REMARK                         _______ _______ _______ _____ _____    ______ ____
ROOT
ATOM      1  O   HOH     1      18.376  30.698  21.720  0.00  0.00    +0.000 OA
ENDROOT
TORSDOF 0
REMARK  Name = ../refined-set-2016/3cyx/3cyx_pocket.pdb
REMARK  233 active torsions:
REMARK  status: ('A' for Active; 'I' for Inactive)
REMARK    1  A    between atoms: _1  and  _3
REMARK    2  A    between atoms: _3  and  _4
REMARK    3  A    between atoms: _3  and  _6
REMARK    4  A    between atoms: _6  and  _7
REMARK    5  A    between atoms: _7  and  _8
REMARK    6  A    between atoms: _8  and  _9
REMARK    7  A    between atoms: _18  and  _20
REMARK    8  A    between atoms: _20  and  _21
REMARK    9  A    between atoms: _20  and  _23
REMARK   10  A    between atoms: _23  and  _24
REMARK   11  A    between atoms: _27  and  _29
REMARK   12  A    between atoms: _29  and  _30
REMARK   13  A    between atoms: _29  and  _32
REMARK   14  A    between atoms: _32  and  _33
REMARK   15  A    between atoms: _36  and  _38
REMARK   16  A    between atoms: _38  and  _39
REMARK   17  A    between atoms: _38  and  _41
REMARK   18  A    between atoms: _41  and  _42
REMARK   19  A    between atoms: _45  and  _47
REMARK   20  A    between atoms: _47  and  _48
REMARK   21  A    between atoms: _47  and  _50
REMARK   22  A    between atoms: _50  and  _51
REMARK   23  A    between atoms: _54  and  _56
REMARK   24  A    between atoms: _56  and  _57
REMARK   25  A    between atoms: _59  and  _61
REMARK   26  A    between atoms: _61  and  _62
REMARK   27  A    between atoms: _65  and  _67
REMARK   28  A    between atoms: _67  and  _68
REMARK   29  A    between atoms: _67  and  _70
REMARK   30  A    between atoms: _70  and  _71
REMARK   31  A    between atoms: _74  and  _76
REMARK   32  A    between atoms: _76  and  _77
REMARK   33  A    between atoms: _76  and  _79
REMARK   34  A    between atoms: _79  and  _80
REMARK   35  A    between atoms: _83  and  _85
REMARK   36  A    between atoms: _85  and  _86
REMARK   37  A    between atoms: _85  and  _88
REMARK   38  A    between atoms: _88  and  _89
REMARK   39  A    between atoms: _92  and  _94
REMARK   40  A    between atoms: _94  and  _95
REMARK   41  A    between atoms: _94  and  _97
REMARK   42  A    between atoms: _100  and  _102
REMARK   43  A    between atoms: _102  and  _103
REMARK   44  A    between atoms: _102  and  _105
REMARK   45  A    between atoms: _105  and  _106
REMARK   46  A    between atoms: _106  and  _107
REMARK   47  A    between atoms: _107  and  _108
REMARK   48  A    between atoms: _108  and  _109
REMARK   49  A    between atoms: _113  and  _115
REMARK   50  A    between atoms: _115  and  _116
REMARK   51  A    between atoms: _115  and  _118
REMARK   52  A    between atoms: _118  and  _119
REMARK   53  A    between atoms: _119  and  _120
REMARK   54  A    between atoms: _122  and  _124
REMARK   55  A    between atoms: _124  and  _125
REMARK   56  A    between atoms: _124  and  _127
REMARK   57  A    between atoms: _127  and  _128
REMARK   58  A    between atoms: _131  and  _133
REMARK   59  A    between atoms: _133  and  _134
REMARK   60  A    between atoms: _136  and  _138
REMARK   61  A    between atoms: _138  and  _139
REMARK   62  A    between atoms: _141  and  _143
REMARK   63  A    between atoms: _143  and  _144
REMARK   64  A    between atoms: _143  and  _146
REMARK   65  A    between atoms: _149  and  _151
REMARK   66  A    between atoms: _151  and  _152
REMARK   67  A    between atoms: _154  and  _156
REMARK   68  A    between atoms: _156  and  _157
REMARK   69  A    between atoms: _159  and  _161
REMARK   70  A    between atoms: _161  and  _162
REMARK   71  A    between atoms: _161  and  _164
REMARK   72  A    between atoms: _164  and  _165
REMARK   73  A    between atoms: _171  and  _173
REMARK   74  A    between atoms: _173  and  _174
REMARK   75  A    between atoms: _173  and  _176
REMARK   76  A    between atoms: _176  and  _177
REMARK   77  A    between atoms: _180  and  _182
REMARK   78  A    between atoms: _182  and  _183
REMARK   79  A    between atoms: _182  and  _185
REMARK   80  A    between atoms: _188  and  _190
REMARK   81  A    between atoms: _190  and  _191
REMARK   82  A    between atoms: _190  and  _193
REMARK   83  A    between atoms: _193  and  _194
REMARK   84  A    between atoms: _198  and  _199
REMARK   85  A    between atoms: _204  and  _206
REMARK   86  A    between atoms: _206  and  _207
REMARK   87  A    between atoms: _206  and  _209
REMARK   88  A    between atoms: _209  and  _210
REMARK   89  A    between atoms: _214  and  _215
REMARK   90  A    between atoms: _220  and  _222
REMARK   91  A    between atoms: _222  and  _223
REMARK   92  A    between atoms: _222  and  _225
REMARK   93  A    between atoms: _228  and  _230
REMARK   94  A    between atoms: _230  and  _231
REMARK   95  A    between atoms: _230  and  _233
REMARK   96  A    between atoms: _233  and  _234
REMARK   97  A    between atoms: _239  and  _241
REMARK   98  A    between atoms: _241  and  _242
REMARK   99  A    between atoms: _241  and  _244
REMARK  100  A    between atoms: _244  and  _245
REMARK  101  A    between atoms: _248  and  _250
REMARK  102  A    between atoms: _250  and  _251
REMARK  103  A    between atoms: _250  and  _253
REMARK  104  A    between atoms: _253  and  _254
REMARK  105  A    between atoms: _257  and  _259
REMARK  106  A    between atoms: _259  and  _260
REMARK  107  A    between atoms: _262  and  _264
REMARK  108  A    between atoms: _264  and  _265
REMARK  109  A    between atoms: _264  and  _267
REMARK  110  A    between atoms: _267  and  _268
REMARK  111  A    between atoms: _268  and  _269
REMARK  112  A    between atoms: _269  and  _270
REMARK  113  A    between atoms: _279  and  _281
REMARK  114  A    between atoms: _281  and  _282
REMARK  115  A    between atoms: _281  and  _284
REMARK  116  A    between atoms: _284  and  _285
REMARK  117  A    between atoms: _290  and  _292
REMARK  118  A    between atoms: _292  and  _293
REMARK  119  A    between atoms: _292  and  _295
REMARK  120  A    between atoms: _295  and  _296
REMARK  121  A    between atoms: _296  and  _297
REMARK  122  A    between atoms: _297  and  _298
REMARK  123  A    between atoms: _308  and  _309
REMARK  124  A    between atoms: _314  and  _316
REMARK  125  A    between atoms: _316  and  _317
REMARK  126  A    between atoms: _316  and  _319
REMARK  127  A    between atoms: _319  and  _320
REMARK  128  A    between atoms: _323  and  _325
REMARK  129  A    between atoms: _325  and  _326
REMARK  130  A    between atoms: _325  and  _328
REMARK  131  A    between atoms: _328  and  _329
REMARK  132  A    between atoms: _332  and  _334
REMARK  133  A    between atoms: _334  and  _335
REMARK  134  A    between atoms: _334  and  _337
REMARK  135  A    between atoms: _337  and  _338
REMARK  136  A    between atoms: _341  and  _343
REMARK  137  A    between atoms: _343  and  _344
REMARK  138  A    between atoms: _343  and  _346
REMARK  139  A    between atoms: _346  and  _347
REMARK  140  A    between atoms: _350  and  _352
REMARK  141  A    between atoms: _352  and  _353
REMARK  142  A    between atoms: _352  and  _355
REMARK  143  A    between atoms: _355  and  _356
REMARK  144  A    between atoms: _359  and  _361
REMARK  145  A    between atoms: _361  and  _362
REMARK  146  A    between atoms: _364  and  _366
REMARK  147  A    between atoms: _366  and  _367
REMARK  148  A    between atoms: _370  and  _372
REMARK  149  A    between atoms: _372  and  _373
REMARK  150  A    between atoms: _372  and  _375
REMARK  151  A    between atoms: _375  and  _376
REMARK  152  A    between atoms: _379  and  _381
REMARK  153  A    between atoms: _381  and  _382
REMARK  154  A    between atoms: _381  and  _384
REMARK  155  A    between atoms: _384  and  _385
REMARK  156  A    between atoms: _388  and  _390
REMARK  157  A    between atoms: _390  and  _391
REMARK  158  A    between atoms: _390  and  _393
REMARK  159  A    between atoms: _393  and  _394
REMARK  160  A    between atoms: _397  and  _399
REMARK  161  A    between atoms: _399  and  _400
REMARK  162  A    between atoms: _399  and  _402
REMARK  163  A    between atoms: _405  and  _407
REMARK  164  A    between atoms: _407  and  _408
REMARK  165  A    between atoms: _407  and  _410
REMARK  166  A    between atoms: _410  and  _411
REMARK  167  A    between atoms: _411  and  _412
REMARK  168  A    between atoms: _412  and  _413
REMARK  169  A    between atoms: _413  and  _414
REMARK  170  A    between atoms: _418  and  _420
REMARK  171  A    between atoms: _420  and  _421
REMARK  172  A    between atoms: _420  and  _423
REMARK  173  A    between atoms: _423  and  _424
REMARK  174  A    between atoms: _424  and  _425
REMARK  175  A    between atoms: _427  and  _429
REMARK  176  A    between atoms: _429  and  _430
REMARK  177  A    between atoms: _429  and  _432
REMARK  178  A    between atoms: _432  and  _433
REMARK  179  A    between atoms: _436  and  _438
REMARK  180  A    between atoms: _438  and  _439
REMARK  181  A    between atoms: _441  and  _443
REMARK  182  A    between atoms: _443  and  _444
REMARK  183  A    between atoms: _446  and  _448
REMARK  184  A    between atoms: _448  and  _449
REMARK  185  A    between atoms: _448  and  _451
REMARK  186  A    between atoms: _454  and  _456
REMARK  187  A    between atoms: _456  and  _457
REMARK  188  A    between atoms: _459  and  _461
REMARK  189  A    between atoms: _461  and  _462
REMARK  190  A    between atoms: _464  and  _466
REMARK  191  A    between atoms: _466  and  _467
REMARK  192  A    between atoms: _466  and  _469
REMARK  193  A    between atoms: _469  and  _470
REMARK  194  A    between atoms: _476  and  _478
REMARK  195  A    between atoms: _478  and  _479
REMARK  196  A    between atoms: _478  and  _481
REMARK  197  A    between atoms: _481  and  _482
REMARK  198  A    between atoms: _485  and  _487
REMARK  199  A    between atoms: _487  and  _488
REMARK  200  A    between atoms: _487  and  _490
REMARK  201  A    between atoms: _493  and  _495
REMARK  202  A    between atoms: _495  and  _496
REMARK  203  A    between atoms: _495  and  _498
REMARK  204  A    between atoms: _498  and  _499
REMARK  205  A    between atoms: _503  and  _504
REMARK  206  A    between atoms: _509  and  _511
REMARK  207  A    between atoms: _511  and  _512
REMARK  208  A    between atoms: _511  and  _514
REMARK  209  A    between atoms: _514  and  _515
REMARK  210  A    between atoms: _519  and  _520
REMARK  211  A    between atoms: _525  and  _527
REMARK  212  A    between atoms: _527  and  _528
REMARK  213  A    between atoms: _527  and  _530
REMARK  214  A    between atoms: _533  and  _535
REMARK  215  A    between atoms: _535  and  _536
REMARK  216  A    between atoms: _535  and  _538
REMARK  217  A    between atoms: _538  and  _539
REMARK  218  A    between atoms: _544  and  _546
REMARK  219  A    between atoms: _546  and  _547
REMARK  220  A    between atoms: _546  and  _549
REMARK  221  A    between atoms: _549  and  _550
REMARK  222  A    between atoms: _553  and  _555
REMARK  223  A    between atoms: _555  and  _556
REMARK  224  A    between atoms: _555  and  _558
REMARK  225  A    between atoms: _558  and  _559
REMARK  226  A    between atoms: _562  and  _564
REMARK  227  A    between atoms: _564  and  _565
REMARK  228  A    between atoms: _567  and  _569
REMARK  229  A    between atoms: _569  and  _570
REMARK  230  A    between atoms: _569  and  _572
REMARK  231  A    between atoms: _572  and  _573
REMARK  232  A    between atoms: _573  and  _574
REMARK  233  A    between atoms: _574  and  _575
REMARK                            x       y       z     vdW  Elec       q    Type
REMARK                         _______ _______ _______ _____ _____    ______ ____
ROOT
ATOM      1  O   HOH     1      20.073  28.700  21.209  0.00  0.00    +0.000 OA
ENDROOT
TORSDOF 0
REMARK  Name = ../refined-set-2016/3cyx/3cyx_pocket.pdb
REMARK  233 active torsions:
REMARK  status: ('A' for Active; 'I' for Inactive)
REMARK    1  A    between atoms: _1  and  _3
REMARK    2  A    between atoms: _3  and  _4
REMARK    3  A    between atoms: _3  and  _6
REMARK    4  A    between atoms: _6  and  _7
REMARK    5  A    between atoms: _7  and  _8
REMARK    6  A    between atoms: _8  and  _9
REMARK    7  A    between atoms: _18  and  _20
REMARK    8  A    between atoms: _20  and  _21
REMARK    9  A    between atoms: _20  and  _23
REMARK   10  A    between atoms: _23  and  _24
REMARK   11  A    between atoms: _27  and  _29
REMARK   12  A    between atoms: _29  and  _30
REMARK   13  A    between atoms: _29  and  _32
REMARK   14  A    between atoms: _32  and  _33
REMARK   15  A    between atoms: _36  and  _38
REMARK   16  A    between atoms: _38  and  _39
REMARK   17  A    between atoms: _38  and  _41
REMARK   18  A    between atoms: _41  and  _42
REMARK   19  A    between atoms: _45  and  _47
REMARK   20  A    between atoms: _47  and  _48
REMARK   21  A    between atoms: _47  and  _50
REMARK   22  A    between atoms: _50  and  _51
REMARK   23  A    between atoms: _54  and  _56
REMARK   24  A    between atoms: _56  and  _57
REMARK   25  A    between atoms: _59  and  _61
REMARK   26  A    between atoms: _61  and  _62
REMARK   27  A    between atoms: _65  and  _67
REMARK   28  A    between atoms: _67  and  _68
REMARK   29  A    between atoms: _67  and  _70
REMARK   30  A    between atoms: _70  and  _71
REMARK   31  A    between atoms: _74  and  _76
REMARK   32  A    between atoms: _76  and  _77
REMARK   33  A    between atoms: _76  and  _79
REMARK   34  A    between atoms: _79  and  _80
REMARK   35  A    between atoms: _83  and  _85
REMARK   36  A    between atoms: _85  and  _86
REMARK   37  A    between atoms: _85  and  _88
REMARK   38  A    between atoms: _88  and  _89
REMARK   39  A    between atoms: _92  and  _94
REMARK   40  A    between atoms: _94  and  _95
REMARK   41  A    between atoms: _94  and  _97
REMARK   42  A    between atoms: _100  and  _102
REMARK   43  A    between atoms: _102  and  _103
REMARK   44  A    between atoms: _102  and  _105
REMARK   45  A    between atoms: _105  and  _106
REMARK   46  A    between atoms: _106  and  _107
REMARK   47  A    between atoms: _107  and  _108
REMARK   48  A    between atoms: _108  and  _109
REMARK   49  A    between atoms: _113  and  _115
REMARK   50  A    between atoms: _115  and  _116
REMARK   51  A    between atoms: _115  and  _118
REMARK   52  A    between atoms: _118  and  _119
REMARK   53  A    between atoms: _119  and  _120
REMARK   54  A    between atoms: _122  and  _124
REMARK   55  A    between atoms: _124  and  _125
REMARK   56  A    between atoms: _124  and  _127
REMARK   57  A    between atoms: _127  and  _128
REMARK   58  A    between atoms: _131  and  _133
REMARK   59  A    between atoms: _133  and  _134
REMARK   60  A    between atoms: _136  and  _138
REMARK   61  A    between atoms: _138  and  _139
REMARK   62  A    between atoms: _141  and  _143
REMARK   63  A    between atoms: _143  and  _144
REMARK   64  A    between atoms: _143  and  _146
REMARK   65  A    between atoms: _149  and  _151
REMARK   66  A    between atoms: _151  and  _152
REMARK   67  A    between atoms: _154  and  _156
REMARK   68  A    between atoms: _156  and  _157
REMARK   69  A    between atoms: _159  and  _161
REMARK   70  A    between atoms: _161  and  _162
REMARK   71  A    between atoms: _161  and  _164
REMARK   72  A    between atoms: _164  and  _165
REMARK   73  A    between atoms: _171  and  _173
REMARK   74  A    between atoms: _173  and  _174
REMARK   75  A    between atoms: _173  and  _176
REMARK   76  A    between atoms: _176  and  _177
REMARK   77  A    between atoms: _180  and  _182
REMARK   78  A    between atoms: _182  and  _183
REMARK   79  A    between atoms: _182  and  _185
REMARK   80  A    between atoms: _188  and  _190
REMARK   81  A    between atoms: _190  and  _191
REMARK   82  A    between atoms: _190  and  _193
REMARK   83  A    between atoms: _193  and  _194
REMARK   84  A    between atoms: _198  and  _199
REMARK   85  A    between atoms: _204  and  _206
REMARK   86  A    between atoms: _206  and  _207
REMARK   87  A    between atoms: _206  and  _209
REMARK   88  A    between atoms: _209  and  _210
REMARK   89  A    between atoms: _214  and  _215
REMARK   90  A    between atoms: _220  and  _222
REMARK   91  A    between atoms: _222  and  _223
REMARK   92  A    between atoms: _222  and  _225
REMARK   93  A    between atoms: _228  and  _230
REMARK   94  A    between atoms: _230  and  _231
REMARK   95  A    between atoms: _230  and  _233
REMARK   96  A    between atoms: _233  and  _234
REMARK   97  A    between atoms: _239  and  _241
REMARK   98  A    between atoms: _241  and  _242
REMARK   99  A    between atoms: _241  and  _244
REMARK  100  A    between atoms: _244  and  _245
REMARK  101  A    between atoms: _248  and  _250
REMARK  102  A    between atoms: _250  and  _251
REMARK  103  A    between atoms: _250  and  _253
REMARK  104  A    between atoms: _253  and  _254
REMARK  105  A    between atoms: _257  and  _259
REMARK  106  A    between atoms: _259  and  _260
REMARK  107  A    between atoms: _262  and  _264
REMARK  108  A    between atoms: _264  and  _265
REMARK  109  A    between atoms: _264  and  _267
REMARK  110  A    between atoms: _267  and  _268
REMARK  111  A    between atoms: _268  and  _269
REMARK  112  A    between atoms: _269  and  _270
REMARK  113  A    between atoms: _279  and  _281
REMARK  114  A    between atoms: _281  and  _282
REMARK  115  A    between atoms: _281  and  _284
REMARK  116  A    between atoms: _284  and  _285
REMARK  117  A    between atoms: _290  and  _292
REMARK  118  A    between atoms: _292  and  _293
REMARK  119  A    between atoms: _292  and  _295
REMARK  120  A    between atoms: _295  and  _296
REMARK  121  A    between atoms: _296  and  _297
REMARK  122  A    between atoms: _297  and  _298
REMARK  123  A    between atoms: _308  and  _309
REMARK  124  A    between atoms: _314  and  _316
REMARK  125  A    between atoms: _316  and  _317
REMARK  126  A    between atoms: _316  and  _319
REMARK  127  A    between atoms: _319  and  _320
REMARK  128  A    between atoms: _323  and  _325
REMARK  129  A    between atoms: _325  and  _326
REMARK  130  A    between atoms: _325  and  _328
REMARK  131  A    between atoms: _328  and  _329
REMARK  132  A    between atoms: _332  and  _334
REMARK  133  A    between atoms: _334  and  _335
REMARK  134  A    between atoms: _334  and  _337
REMARK  135  A    between atoms: _337  and  _338
REMARK  136  A    between atoms: _341  and  _343
REMARK  137  A    between atoms: _343  and  _344
REMARK  138  A    between atoms: _343  and  _346
REMARK  139  A    between atoms: _346  and  _347
REMARK  140  A    between atoms: _350  and  _352
REMARK  141  A    between atoms: _352  and  _353
REMARK  142  A    between atoms: _352  and  _355
REMARK  143  A    between atoms: _355  and  _356
REMARK  144  A    between atoms: _359  and  _361
REMARK  145  A    between atoms: _361  and  _362
REMARK  146  A    between atoms: _364  and  _366
REMARK  147  A    between atoms: _366  and  _367
REMARK  148  A    between atoms: _370  and  _372
REMARK  149  A    between atoms: _372  and  _373
REMARK  150  A    between atoms: _372  and  _375
REMARK  151  A    between atoms: _375  and  _376
REMARK  152  A    between atoms: _379  and  _381
REMARK  153  A    between atoms: _381  and  _382
REMARK  154  A    between atoms: _381  and  _384
REMARK  155  A    between atoms: _384  and  _385
REMARK  156  A    between atoms: _388  and  _390
REMARK  157  A    between atoms: _390  and  _391
REMARK  158  A    between atoms: _390  and  _393
REMARK  159  A    between atoms: _393  and  _394
REMARK  160  A    between atoms: _397  and  _399
REMARK  161  A    between atoms: _399  and  _400
REMARK  162  A    between atoms: _399  and  _402
REMARK  163  A    between atoms: _405  and  _407
REMARK  164  A    between atoms: _407  and  _408
REMARK  165  A    between atoms: _407  and  _410
REMARK  166  A    between atoms: _410  and  _411
REMARK  167  A    between atoms: _411  and  _412
REMARK  168  A    between atoms: _412  and  _413
REMARK  169  A    between atoms: _413  and  _414
REMARK  170  A    between atoms: _418  and  _420
REMARK  171  A    between atoms: _420  and  _421
REMARK  172  A    between atoms: _420  and  _423
REMARK  173  A    between atoms: _423  and  _424
REMARK  174  A    between atoms: _424  and  _425
REMARK  175  A    between atoms: _427  and  _429
REMARK  176  A    between atoms: _429  and  _430
REMARK  177  A    between atoms: _429  and  _432
REMARK  178  A    between atoms: _432  and  _433
REMARK  179  A    between atoms: _436  and  _438
REMARK  180  A    between atoms: _438  and  _439
REMARK  181  A    between atoms: _441  and  _443
REMARK  182  A    between atoms: _443  and  _444
REMARK  183  A    between atoms: _446  and  _448
REMARK  184  A    between atoms: _448  and  _449
REMARK  185  A    between atoms: _448  and  _451
REMARK  186  A    between atoms: _454  and  _456
REMARK  187  A    between atoms: _456  and  _457
REMARK  188  A    between atoms: _459  and  _461
REMARK  189  A    between atoms: _461  and  _462
REMARK  190  A    between atoms: _464  and  _466
REMARK  191  A    between atoms: _466  and  _467
REMARK  192  A    between atoms: _466  and  _469
REMARK  193  A    between atoms: _469  and  _470
REMARK  194  A    between atoms: _476  and  _478
REMARK  195  A    between atoms: _478  and  _479
REMARK  196  A    between atoms: _478  and  _481
REMARK  197  A    between atoms: _481  and  _482
REMARK  198  A    between atoms: _485  and  _487
REMARK  199  A    between atoms: _487  and  _488
REMARK  200  A    between atoms: _487  and  _490
REMARK  201  A    between atoms: _493  and  _495
REMARK  202  A    between atoms: _495  and  _496
REMARK  203  A    between atoms: _495  and  _498
REMARK  204  A    between atoms: _498  and  _499
REMARK  205  A    between atoms: _503  and  _504
REMARK  206  A    between atoms: _509  and  _511
REMARK  207  A    between atoms: _511  and  _512
REMARK  208  A    between atoms: _511  and  _514
REMARK  209  A    between atoms: _514  and  _515
REMARK  210  A    between atoms: _519  and  _520
REMARK  211  A    between atoms: _525  and  _527
REMARK  212  A    between atoms: _527  and  _528
REMARK  213  A    between atoms: _527  and  _530
REMARK  214  A    between atoms: _533  and  _535
REMARK  215  A    between atoms: _535  and  _536
REMARK  216  A    between atoms: _535  and  _538
REMARK  217  A    between atoms: _538  and  _539
REMARK  218  A    between atoms: _544  and  _546
REMARK  219  A    between atoms: _546  and  _547
REMARK  220  A    between atoms: _546  and  _549
REMARK  221  A    between atoms: _549  and  _550
REMARK  222  A    between atoms: _553  and  _555
REMARK  223  A    between atoms: _555  and  _556
REMARK  224  A    between atoms: _555  and  _558
REMARK  225  A    between atoms: _558  and  _559
REMARK  226  A    between atoms: _562  and  _564
REMARK  227  A    between atoms: _564  and  _565
REMARK  228  A    between atoms: _567  and  _569
REMARK  229  A    between atoms: _569  and  _570
REMARK  230  A    between atoms: _569  and  _572
REMARK  231  A    between atoms: _572  and  _573
REMARK  232  A    between atoms: _573  and  _574
REMARK  233  A    between atoms: _574  and  _575
REMARK                            x       y       z     vdW  Elec       q    Type
REMARK                         _______ _______ _______ _____ _____    ______ ____
ROOT
ATOM      1  O   HOH     1      18.044  20.903  16.712  0.00  0.00    +0.000 OA
ENDROOT
TORSDOF 0
REMARK  Name = ../refined-set-2016/3cyx/3cyx_pocket.pdb
REMARK  233 active torsions:
REMARK  status: ('A' for Active; 'I' for Inactive)
REMARK    1  A    between atoms: _1  and  _3
REMARK    2  A    between atoms: _3  and  _4
REMARK    3  A    between atoms: _3  and  _6
REMARK    4  A    between atoms: _6  and  _7
REMARK    5  A    between atoms: _7  and  _8
REMARK    6  A    between atoms: _8  and  _9
REMARK    7  A    between atoms: _18  and  _20
REMARK    8  A    between atoms: _20  and  _21
REMARK    9  A    between atoms: _20  and  _23
REMARK   10  A    between atoms: _23  and  _24
REMARK   11  A    between atoms: _27  and  _29
REMARK   12  A    between atoms: _29  and  _30
REMARK   13  A    between atoms: _29  and  _32
REMARK   14  A    between atoms: _32  and  _33
REMARK   15  A    between atoms: _36  and  _38
REMARK   16  A    between atoms: _38  and  _39
REMARK   17  A    between atoms: _38  and  _41
REMARK   18  A    between atoms: _41  and  _42
REMARK   19  A    between atoms: _45  and  _47
REMARK   20  A    between atoms: _47  and  _48
REMARK   21  A    between atoms: _47  and  _50
REMARK   22  A    between atoms: _50  and  _51
REMARK   23  A    between atoms: _54  and  _56
REMARK   24  A    between atoms: _56  and  _57
REMARK   25  A    between atoms: _59  and  _61
REMARK   26  A    between atoms: _61  and  _62
REMARK   27  A    between atoms: _65  and  _67
REMARK   28  A    between atoms: _67  and  _68
REMARK   29  A    between atoms: _67  and  _70
REMARK   30  A    between atoms: _70  and  _71
REMARK   31  A    between atoms: _74  and  _76
REMARK   32  A    between atoms: _76  and  _77
REMARK   33  A    between atoms: _76  and  _79
REMARK   34  A    between atoms: _79  and  _80
REMARK   35  A    between atoms: _83  and  _85
REMARK   36  A    between atoms: _85  and  _86
REMARK   37  A    between atoms: _85  and  _88
REMARK   38  A    between atoms: _88  and  _89
REMARK   39  A    between atoms: _92  and  _94
REMARK   40  A    between atoms: _94  and  _95
REMARK   41  A    between atoms: _94  and  _97
REMARK   42  A    between atoms: _100  and  _102
REMARK   43  A    between atoms: _102  and  _103
REMARK   44  A    between atoms: _102  and  _105
REMARK   45  A    between atoms: _105  and  _106
REMARK   46  A    between atoms: _106  and  _107
REMARK   47  A    between atoms: _107  and  _108
REMARK   48  A    between atoms: _108  and  _109
REMARK   49  A    between atoms: _113  and  _115
REMARK   50  A    between atoms: _115  and  _116
REMARK   51  A    between atoms: _115  and  _118
REMARK   52  A    between atoms: _118  and  _119
REMARK   53  A    between atoms: _119  and  _120
REMARK   54  A    between atoms: _122  and  _124
REMARK   55  A    between atoms: _124  and  _125
REMARK   56  A    between atoms: _124  and  _127
REMARK   57  A    between atoms: _127  and  _128
REMARK   58  A    between atoms: _131  and  _133
REMARK   59  A    between atoms: _133  and  _134
REMARK   60  A    between atoms: _136  and  _138
REMARK   61  A    between atoms: _138  and  _139
REMARK   62  A    between atoms: _141  and  _143
REMARK   63  A    between atoms: _143  and  _144
REMARK   64  A    between atoms: _143  and  _146
REMARK   65  A    between atoms: _149  and  _151
REMARK   66  A    between atoms: _151  and  _152
REMARK   67  A    between atoms: _154  and  _156
REMARK   68  A    between atoms: _156  and  _157
REMARK   69  A    between atoms: _159  and  _161
REMARK   70  A    between atoms: _161  and  _162
REMARK   71  A    between atoms: _161  and  _164
REMARK   72  A    between atoms: _164  and  _165
REMARK   73  A    between atoms: _171  and  _173
REMARK   74  A    between atoms: _173  and  _174
REMARK   75  A    between atoms: _173  and  _176
REMARK   76  A    between atoms: _176  and  _177
REMARK   77  A    between atoms: _180  and  _182
REMARK   78  A    between atoms: _182  and  _183
REMARK   79  A    between atoms: _182  and  _185
REMARK   80  A    between atoms: _188  and  _190
REMARK   81  A    between atoms: _190  and  _191
REMARK   82  A    between atoms: _190  and  _193
REMARK   83  A    between atoms: _193  and  _194
REMARK   84  A    between atoms: _198  and  _199
REMARK   85  A    between atoms: _204  and  _206
REMARK   86  A    between atoms: _206  and  _207
REMARK   87  A    between atoms: _206  and  _209
REMARK   88  A    between atoms: _209  and  _210
REMARK   89  A    between atoms: _214  and  _215
REMARK   90  A    between atoms: _220  and  _222
REMARK   91  A    between atoms: _222  and  _223
REMARK   92  A    between atoms: _222  and  _225
REMARK   93  A    between atoms: _228  and  _230
REMARK   94  A    between atoms: _230  and  _231
REMARK   95  A    between atoms: _230  and  _233
REMARK   96  A    between atoms: _233  and  _234
REMARK   97  A    between atoms: _239  and  _241
REMARK   98  A    between atoms: _241  and  _242
REMARK   99  A    between atoms: _241  and  _244
REMARK  100  A    between atoms: _244  and  _245
REMARK  101  A    between atoms: _248  and  _250
REMARK  102  A    between atoms: _250  and  _251
REMARK  103  A    between atoms: _250  and  _253
REMARK  104  A    between atoms: _253  and  _254
REMARK  105  A    between atoms: _257  and  _259
REMARK  106  A    between atoms: _259  and  _260
REMARK  107  A    between atoms: _262  and  _264
REMARK  108  A    between atoms: _264  and  _265
REMARK  109  A    between atoms: _264  and  _267
REMARK  110  A    between atoms: _267  and  _268
REMARK  111  A    between atoms: _268  and  _269
REMARK  112  A    between atoms: _269  and  _270
REMARK  113  A    between atoms: _279  and  _281
REMARK  114  A    between atoms: _281  and  _282
REMARK  115  A    between atoms: _281  and  _284
REMARK  116  A    between atoms: _284  and  _285
REMARK  117  A    between atoms: _290  and  _292
REMARK  118  A    between atoms: _292  and  _293
REMARK  119  A    between atoms: _292  and  _295
REMARK  120  A    between atoms: _295  and  _296
REMARK  121  A    between atoms: _296  and  _297
REMARK  122  A    between atoms: _297  and  _298
REMARK  123  A    between atoms: _308  and  _309
REMARK  124  A    between atoms: _314  and  _316
REMARK  125  A    between atoms: _316  and  _317
REMARK  126  A    between atoms: _316  and  _319
REMARK  127  A    between atoms: _319  and  _320
REMARK  128  A    between atoms: _323  and  _325
REMARK  129  A    between atoms: _325  and  _326
REMARK  130  A    between atoms: _325  and  _328
REMARK  131  A    between atoms: _328  and  _329
REMARK  132  A    between atoms: _332  and  _334
REMARK  133  A    between atoms: _334  and  _335
REMARK  134  A    between atoms: _334  and  _337
REMARK  135  A    between atoms: _337  and  _338
REMARK  136  A    between atoms: _341  and  _343
REMARK  137  A    between atoms: _343  and  _344
REMARK  138  A    between atoms: _343  and  _346
REMARK  139  A    between atoms: _346  and  _347
REMARK  140  A    between atoms: _350  and  _352
REMARK  141  A    between atoms: _352  and  _353
REMARK  142  A    between atoms: _352  and  _355
REMARK  143  A    between atoms: _355  and  _356
REMARK  144  A    between atoms: _359  and  _361
REMARK  145  A    between atoms: _361  and  _362
REMARK  146  A    between atoms: _364  and  _366
REMARK  147  A    between atoms: _366  and  _367
REMARK  148  A    between atoms: _370  and  _372
REMARK  149  A    between atoms: _372  and  _373
REMARK  150  A    between atoms: _372  and  _375
REMARK  151  A    between atoms: _375  and  _376
REMARK  152  A    between atoms: _379  and  _381
REMARK  153  A    between atoms: _381  and  _382
REMARK  154  A    between atoms: _381  and  _384
REMARK  155  A    between atoms: _384  and  _385
REMARK  156  A    between atoms: _388  and  _390
REMARK  157  A    between atoms: _390  and  _391
REMARK  158  A    between atoms: _390  and  _393
REMARK  159  A    between atoms: _393  and  _394
REMARK  160  A    between atoms: _397  and  _399
REMARK  161  A    between atoms: _399  and  _400
REMARK  162  A    between atoms: _399  and  _402
REMARK  163  A    between atoms: _405  and  _407
REMARK  164  A    between atoms: _407  and  _408
REMARK  165  A    between atoms: _407  and  _410
REMARK  166  A    between atoms: _410  and  _411
REMARK  167  A    between atoms: _411  and  _412
REMARK  168  A    between atoms: _412  and  _413
REMARK  169  A    between atoms: _413  and  _414
REMARK  170  A    between atoms: _418  and  _420
REMARK  171  A    between atoms: _420  and  _421
REMARK  172  A    between atoms: _420  and  _423
REMARK  173  A    between atoms: _423  and  _424
REMARK  174  A    between atoms: _424  and  _425
REMARK  175  A    between atoms: _427  and  _429
REMARK  176  A    between atoms: _429  and  _430
REMARK  177  A    between atoms: _429  and  _432
REMARK  178  A    between atoms: _432  and  _433
REMARK  179  A    between atoms: _436  and  _438
REMARK  180  A    between atoms: _438  and  _439
REMARK  181  A    between atoms: _441  and  _443
REMARK  182  A    between atoms: _443  and  _444
REMARK  183  A    between atoms: _446  and  _448
REMARK  184  A    between atoms: _448  and  _449
REMARK  185  A    between atoms: _448  and  _451
REMARK  186  A    between atoms: _454  and  _456
REMARK  187  A    between atoms: _456  and  _457
REMARK  188  A    between atoms: _459  and  _461
REMARK  189  A    between atoms: _461  and  _462
REMARK  190  A    between atoms: _464  and  _466
REMARK  191  A    between atoms: _466  and  _467
REMARK  192  A    between atoms: _466  and  _469
REMARK  193  A    between atoms: _469  and  _470
REMARK  194  A    between atoms: _476  and  _478
REMARK  195  A    between atoms: _478  and  _479
REMARK  196  A    between atoms: _478  and  _481
REMARK  197  A    between atoms: _481  and  _482
REMARK  198  A    between atoms: _485  and  _487
REMARK  199  A    between atoms: _487  and  _488
REMARK  200  A    between atoms: _487  and  _490
REMARK  201  A    between atoms: _493  and  _495
REMARK  202  A    between atoms: _495  and  _496
REMARK  203  A    between atoms: _495  and  _498
REMARK  204  A    between atoms: _498  and  _499
REMARK  205  A    between atoms: _503  and  _504
REMARK  206  A    between atoms: _509  and  _511
REMARK  207  A    between atoms: _511  and  _512
REMARK  208  A    between atoms: _511  and  _514
REMARK  209  A    between atoms: _514  and  _515
REMARK  210  A    between atoms: _519  and  _520
REMARK  211  A    between atoms: _525  and  _527
REMARK  212  A    between atoms: _527  and  _528
REMARK  213  A    between atoms: _527  and  _530
REMARK  214  A    between atoms: _533  and  _535
REMARK  215  A    between atoms: _535  and  _536
REMARK  216  A    between atoms: _535  and  _538
REMARK  217  A    between atoms: _538  and  _539
REMARK  218  A    between atoms: _544  and  _546
REMARK  219  A    between atoms: _546  and  _547
REMARK  220  A    between atoms: _546  and  _549
REMARK  221  A    between atoms: _549  and  _550
REMARK  222  A    between atoms: _553  and  _555
REMARK  223  A    between atoms: _555  and  _556
REMARK  224  A    between atoms: _555  and  _558
REMARK  225  A    between atoms: _558  and  _559
REMARK  226  A    between atoms: _562  and  _564
REMARK  227  A    between atoms: _564  and  _565
REMARK  228  A    between atoms: _567  and  _569
REMARK  229  A    between atoms: _569  and  _570
REMARK  230  A    between atoms: _569  and  _572
REMARK  231  A    between atoms: _572  and  _573
REMARK  232  A    between atoms: _573  and  _574
REMARK  233  A    between atoms: _574  and  _575
REMARK                            x       y       z     vdW  Elec       q    Type
REMARK                         _______ _______ _______ _____ _____    ______ ____
ROOT
ATOM      1  O   HOH     1      20.795  33.358  10.554  0.00  0.00    +0.000 OA
ENDROOT
TORSDOF 0
REMARK  Name = ../refined-set-2016/3cyx/3cyx_pocket.pdb
REMARK  233 active torsions:
REMARK  status: ('A' for Active; 'I' for Inactive)
REMARK    1  A    between atoms: _1  and  _3
REMARK    2  A    between atoms: _3  and  _4
REMARK    3  A    between atoms: _3  and  _6
REMARK    4  A    between atoms: _6  and  _7
REMARK    5  A    between atoms: _7  and  _8
REMARK    6  A    between atoms: _8  and  _9
REMARK    7  A    between atoms: _18  and  _20
REMARK    8  A    between atoms: _20  and  _21
REMARK    9  A    between atoms: _20  and  _23
REMARK   10  A    between atoms: _23  and  _24
REMARK   11  A    between atoms: _27  and  _29
REMARK   12  A    between atoms: _29  and  _30
REMARK   13  A    between atoms: _29  and  _32
REMARK   14  A    between atoms: _32  and  _33
REMARK   15  A    between atoms: _36  and  _38
REMARK   16  A    between atoms: _38  and  _39
REMARK   17  A    between atoms: _38  and  _41
REMARK   18  A    between atoms: _41  and  _42
REMARK   19  A    between atoms: _45  and  _47
REMARK   20  A    between atoms: _47  and  _48
REMARK   21  A    between atoms: _47  and  _50
REMARK   22  A    between atoms: _50  and  _51
REMARK   23  A    between atoms: _54  and  _56
REMARK   24  A    between atoms: _56  and  _57
REMARK   25  A    between atoms: _59  and  _61
REMARK   26  A    between atoms: _61  and  _62
REMARK   27  A    between atoms: _65  and  _67
REMARK   28  A    between atoms: _67  and  _68
REMARK   29  A    between atoms: _67  and  _70
REMARK   30  A    between atoms: _70  and  _71
REMARK   31  A    between atoms: _74  and  _76
REMARK   32  A    between atoms: _76  and  _77
REMARK   33  A    between atoms: _76  and  _79
REMARK   34  A    between atoms: _79  and  _80
REMARK   35  A    between atoms: _83  and  _85
REMARK   36  A    between atoms: _85  and  _86
REMARK   37  A    between atoms: _85  and  _88
REMARK   38  A    between atoms: _88  and  _89
REMARK   39  A    between atoms: _92  and  _94
REMARK   40  A    between atoms: _94  and  _95
REMARK   41  A    between atoms: _94  and  _97
REMARK   42  A    between atoms: _100  and  _102
REMARK   43  A    between atoms: _102  and  _103
REMARK   44  A    between atoms: _102  and  _105
REMARK   45  A    between atoms: _105  and  _106
REMARK   46  A    between atoms: _106  and  _107
REMARK   47  A    between atoms: _107  and  _108
REMARK   48  A    between atoms: _108  and  _109
REMARK   49  A    between atoms: _113  and  _115
REMARK   50  A    between atoms: _115  and  _116
REMARK   51  A    between atoms: _115  and  _118
REMARK   52  A    between atoms: _118  and  _119
REMARK   53  A    between atoms: _119  and  _120
REMARK   54  A    between atoms: _122  and  _124
REMARK   55  A    between atoms: _124  and  _125
REMARK   56  A    between atoms: _124  and  _127
REMARK   57  A    between atoms: _127  and  _128
REMARK   58  A    between atoms: _131  and  _133
REMARK   59  A    between atoms: _133  and  _134
REMARK   60  A    between atoms: _136  and  _138
REMARK   61  A    between atoms: _138  and  _139
REMARK   62  A    between atoms: _141  and  _143
REMARK   63  A    between atoms: _143  and  _144
REMARK   64  A    between atoms: _143  and  _146
REMARK   65  A    between atoms: _149  and  _151
REMARK   66  A    between atoms: _151  and  _152
REMARK   67  A    between atoms: _154  and  _156
REMARK   68  A    between atoms: _156  and  _157
REMARK   69  A    between atoms: _159  and  _161
REMARK   70  A    between atoms: _161  and  _162
REMARK   71  A    between atoms: _161  and  _164
REMARK   72  A    between atoms: _164  and  _165
REMARK   73  A    between atoms: _171  and  _173
REMARK   74  A    between atoms: _173  and  _174
REMARK   75  A    between atoms: _173  and  _176
REMARK   76  A    between atoms: _176  and  _177
REMARK   77  A    between atoms: _180  and  _182
REMARK   78  A    between atoms: _182  and  _183
REMARK   79  A    between atoms: _182  and  _185
REMARK   80  A    between atoms: _188  and  _190
REMARK   81  A    between atoms: _190  and  _191
REMARK   82  A    between atoms: _190  and  _193
REMARK   83  A    between atoms: _193  and  _194
REMARK   84  A    between atoms: _198  and  _199
REMARK   85  A    between atoms: _204  and  _206
REMARK   86  A    between atoms: _206  and  _207
REMARK   87  A    between atoms: _206  and  _209
REMARK   88  A    between atoms: _209  and  _210
REMARK   89  A    between atoms: _214  and  _215
REMARK   90  A    between atoms: _220  and  _222
REMARK   91  A    between atoms: _222  and  _223
REMARK   92  A    between atoms: _222  and  _225
REMARK   93  A    between atoms: _228  and  _230
REMARK   94  A    between atoms: _230  and  _231
REMARK   95  A    between atoms: _230  and  _233
REMARK   96  A    between atoms: _233  and  _234
REMARK   97  A    between atoms: _239  and  _241
REMARK   98  A    between atoms: _241  and  _242
REMARK   99  A    between atoms: _241  and  _244
REMARK  100  A    between atoms: _244  and  _245
REMARK  101  A    between atoms: _248  and  _250
REMARK  102  A    between atoms: _250  and  _251
REMARK  103  A    between atoms: _250  and  _253
REMARK  104  A    between atoms: _253  and  _254
REMARK  105  A    between atoms: _257  and  _259
REMARK  106  A    between atoms: _259  and  _260
REMARK  107  A    between atoms: _262  and  _264
REMARK  108  A    between atoms: _264  and  _265
REMARK  109  A    between atoms: _264  and  _267
REMARK  110  A    between atoms: _267  and  _268
REMARK  111  A    between atoms: _268  and  _269
REMARK  112  A    between atoms: _269  and  _270
REMARK  113  A    between atoms: _279  and  _281
REMARK  114  A    between atoms: _281  and  _282
REMARK  115  A    between atoms: _281  and  _284
REMARK  116  A    between atoms: _284  and  _285
REMARK  117  A    between atoms: _290  and  _292
REMARK  118  A    between atoms: _292  and  _293
REMARK  119  A    between atoms: _292  and  _295
REMARK  120  A    between atoms: _295  and  _296
REMARK  121  A    between atoms: _296  and  _297
REMARK  122  A    between atoms: _297  and  _298
REMARK  123  A    between atoms: _308  and  _309
REMARK  124  A    between atoms: _314  and  _316
REMARK  125  A    between atoms: _316  and  _317
REMARK  126  A    between atoms: _316  and  _319
REMARK  127  A    between atoms: _319  and  _320
REMARK  128  A    between atoms: _323  and  _325
REMARK  129  A    between atoms: _325  and  _326
REMARK  130  A    between atoms: _325  and  _328
REMARK  131  A    between atoms: _328  and  _329
REMARK  132  A    between atoms: _332  and  _334
REMARK  133  A    between atoms: _334  and  _335
REMARK  134  A    between atoms: _334  and  _337
REMARK  135  A    between atoms: _337  and  _338
REMARK  136  A    between atoms: _341  and  _343
REMARK  137  A    between atoms: _343  and  _344
REMARK  138  A    between atoms: _343  and  _346
REMARK  139  A    between atoms: _346  and  _347
REMARK  140  A    between atoms: _350  and  _352
REMARK  141  A    between atoms: _352  and  _353
REMARK  142  A    between atoms: _352  and  _355
REMARK  143  A    between atoms: _355  and  _356
REMARK  144  A    between atoms: _359  and  _361
REMARK  145  A    between atoms: _361  and  _362
REMARK  146  A    between atoms: _364  and  _366
REMARK  147  A    between atoms: _366  and  _367
REMARK  148  A    between atoms: _370  and  _372
REMARK  149  A    between atoms: _372  and  _373
REMARK  150  A    between atoms: _372  and  _375
REMARK  151  A    between atoms: _375  and  _376
REMARK  152  A    between atoms: _379  and  _381
REMARK  153  A    between atoms: _381  and  _382
REMARK  154  A    between atoms: _381  and  _384
REMARK  155  A    between atoms: _384  and  _385
REMARK  156  A    between atoms: _388  and  _390
REMARK  157  A    between atoms: _390  and  _391
REMARK  158  A    between atoms: _390  and  _393
REMARK  159  A    between atoms: _393  and  _394
REMARK  160  A    between atoms: _397  and  _399
REMARK  161  A    between atoms: _399  and  _400
REMARK  162  A    between atoms: _399  and  _402
REMARK  163  A    between atoms: _405  and  _407
REMARK  164  A    between atoms: _407  and  _408
REMARK  165  A    between atoms: _407  and  _410
REMARK  166  A    between atoms: _410  and  _411
REMARK  167  A    between atoms: _411  and  _412
REMARK  168  A    between atoms: _412  and  _413
REMARK  169  A    between atoms: _413  and  _414
REMARK  170  A    between atoms: _418  and  _420
REMARK  171  A    between atoms: _420  and  _421
REMARK  172  A    between atoms: _420  and  _423
REMARK  173  A    between atoms: _423  and  _424
REMARK  174  A    between atoms: _424  and  _425
REMARK  175  A    between atoms: _427  and  _429
REMARK  176  A    between atoms: _429  and  _430
REMARK  177  A    between atoms: _429  and  _432
REMARK  178  A    between atoms: _432  and  _433
REMARK  179  A    between atoms: _436  and  _438
REMARK  180  A    between atoms: _438  and  _439
REMARK  181  A    between atoms: _441  and  _443
REMARK  182  A    between atoms: _443  and  _444
REMARK  183  A    between atoms: _446  and  _448
REMARK  184  A    between atoms: _448  and  _449
REMARK  185  A    between atoms: _448  and  _451
REMARK  186  A    between atoms: _454  and  _456
REMARK  187  A    between atoms: _456  and  _457
REMARK  188  A    between atoms: _459  and  _461
REMARK  189  A    between atoms: _461  and  _462
REMARK  190  A    between atoms: _464  and  _466
REMARK  191  A    between atoms: _466  and  _467
REMARK  192  A    between atoms: _466  and  _469
REMARK  193  A    between atoms: _469  and  _470
REMARK  194  A    between atoms: _476  and  _478
REMARK  195  A    between atoms: _478  and  _479
REMARK  196  A    between atoms: _478  and  _481
REMARK  197  A    between atoms: _481  and  _482
REMARK  198  A    between atoms: _485  and  _487
REMARK  199  A    between atoms: _487  and  _488
REMARK  200  A    between atoms: _487  and  _490
REMARK  201  A    between atoms: _493  and  _495
REMARK  202  A    between atoms: _495  and  _496
REMARK  203  A    between atoms: _495  and  _498
REMARK  204  A    between atoms: _498  and  _499
REMARK  205  A    between atoms: _503  and  _504
REMARK  206  A    between atoms: _509  and  _511
REMARK  207  A    between atoms: _511  and  _512
REMARK  208  A    between atoms: _511  and  _514
REMARK  209  A    between atoms: _514  and  _515
REMARK  210  A    between atoms: _519  and  _520
REMARK  211  A    between atoms: _525  and  _527
REMARK  212  A    between atoms: _527  and  _528
REMARK  213  A    between atoms: _527  and  _530
REMARK  214  A    between atoms: _533  and  _535
REMARK  215  A    between atoms: _535  and  _536
REMARK  216  A    between atoms: _535  and  _538
REMARK  217  A    between atoms: _538  and  _539
REMARK  218  A    between atoms: _544  and  _546
REMARK  219  A    between atoms: _546  and  _547
REMARK  220  A    between atoms: _546  and  _549
REMARK  221  A    between atoms: _549  and  _550
REMARK  222  A    between atoms: _553  and  _555
REMARK  223  A    between atoms: _555  and  _556
REMARK  224  A    between atoms: _555  and  _558
REMARK  225  A    between atoms: _558  and  _559
REMARK  226  A    between atoms: _562  and  _564
REMARK  227  A    between atoms: _564  and  _565
REMARK  228  A    between atoms: _567  and  _569
REMARK  229  A    between atoms: _569  and  _570
REMARK  230  A    between atoms: _569  and  _572
REMARK  231  A    between atoms: _572  and  _573
REMARK  232  A    between atoms: _573  and  _574
REMARK  233  A    between atoms: _574  and  _575
REMARK                            x       y       z     vdW  Elec       q    Type
REMARK                         _______ _______ _______ _____ _____    ______ ____
ROOT
ATOM      1  O   HOH     1      22.630  15.707  19.785  0.00  0.00    +0.000 OA
ENDROOT
TORSDOF 0
REMARK  Name = ../refined-set-2016/3cyx/3cyx_pocket.pdb
REMARK  233 active torsions:
REMARK  status: ('A' for Active; 'I' for Inactive)
REMARK    1  A    between atoms: _1  and  _3
REMARK    2  A    between atoms: _3  and  _4
REMARK    3  A    between atoms: _3  and  _6
REMARK    4  A    between atoms: _6  and  _7
REMARK    5  A    between atoms: _7  and  _8
REMARK    6  A    between atoms: _8  and  _9
REMARK    7  A    between atoms: _18  and  _20
REMARK    8  A    between atoms: _20  and  _21
REMARK    9  A    between atoms: _20  and  _23
REMARK   10  A    between atoms: _23  and  _24
REMARK   11  A    between atoms: _27  and  _29
REMARK   12  A    between atoms: _29  and  _30
REMARK   13  A    between atoms: _29  and  _32
REMARK   14  A    between atoms: _32  and  _33
REMARK   15  A    between atoms: _36  and  _38
REMARK   16  A    between atoms: _38  and  _39
REMARK   17  A    between atoms: _38  and  _41
REMARK   18  A    between atoms: _41  and  _42
REMARK   19  A    between atoms: _45  and  _47
REMARK   20  A    between atoms: _47  and  _48
REMARK   21  A    between atoms: _47  and  _50
REMARK   22  A    between atoms: _50  and  _51
REMARK   23  A    between atoms: _54  and  _56
REMARK   24  A    between atoms: _56  and  _57
REMARK   25  A    between atoms: _59  and  _61
REMARK   26  A    between atoms: _61  and  _62
REMARK   27  A    between atoms: _65  and  _67
REMARK   28  A    between atoms: _67  and  _68
REMARK   29  A    between atoms: _67  and  _70
REMARK   30  A    between atoms: _70  and  _71
REMARK   31  A    between atoms: _74  and  _76
REMARK   32  A    between atoms: _76  and  _77
REMARK   33  A    between atoms: _76  and  _79
REMARK   34  A    between atoms: _79  and  _80
REMARK   35  A    between atoms: _83  and  _85
REMARK   36  A    between atoms: _85  and  _86
REMARK   37  A    between atoms: _85  and  _88
REMARK   38  A    between atoms: _88  and  _89
REMARK   39  A    between atoms: _92  and  _94
REMARK   40  A    between atoms: _94  and  _95
REMARK   41  A    between atoms: _94  and  _97
REMARK   42  A    between atoms: _100  and  _102
REMARK   43  A    between atoms: _102  and  _103
REMARK   44  A    between atoms: _102  and  _105
REMARK   45  A    between atoms: _105  and  _106
REMARK   46  A    between atoms: _106  and  _107
REMARK   47  A    between atoms: _107  and  _108
REMARK   48  A    between atoms: _108  and  _109
REMARK   49  A    between atoms: _113  and  _115
REMARK   50  A    between atoms: _115  and  _116
REMARK   51  A    between atoms: _115  and  _118
REMARK   52  A    between atoms: _118  and  _119
REMARK   53  A    between atoms: _119  and  _120
REMARK   54  A    between atoms: _122  and  _124
REMARK   55  A    between atoms: _124  and  _125
REMARK   56  A    between atoms: _124  and  _127
REMARK   57  A    between atoms: _127  and  _128
REMARK   58  A    between atoms: _131  and  _133
REMARK   59  A    between atoms: _133  and  _134
REMARK   60  A    between atoms: _136  and  _138
REMARK   61  A    between atoms: _138  and  _139
REMARK   62  A    between atoms: _141  and  _143
REMARK   63  A    between atoms: _143  and  _144
REMARK   64  A    between atoms: _143  and  _146
REMARK   65  A    between atoms: _149  and  _151
REMARK   66  A    between atoms: _151  and  _152
REMARK   67  A    between atoms: _154  and  _156
REMARK   68  A    between atoms: _156  and  _157
REMARK   69  A    between atoms: _159  and  _161
REMARK   70  A    between atoms: _161  and  _162
REMARK   71  A    between atoms: _161  and  _164
REMARK   72  A    between atoms: _164  and  _165
REMARK   73  A    between atoms: _171  and  _173
REMARK   74  A    between atoms: _173  and  _174
REMARK   75  A    between atoms: _173  and  _176
REMARK   76  A    between atoms: _176  and  _177
REMARK   77  A    between atoms: _180  and  _182
REMARK   78  A    between atoms: _182  and  _183
REMARK   79  A    between atoms: _182  and  _185
REMARK   80  A    between atoms: _188  and  _190
REMARK   81  A    between atoms: _190  and  _191
REMARK   82  A    between atoms: _190  and  _193
REMARK   83  A    between atoms: _193  and  _194
REMARK   84  A    between atoms: _198  and  _199
REMARK   85  A    between atoms: _204  and  _206
REMARK   86  A    between atoms: _206  and  _207
REMARK   87  A    between atoms: _206  and  _209
REMARK   88  A    between atoms: _209  and  _210
REMARK   89  A    between atoms: _214  and  _215
REMARK   90  A    between atoms: _220  and  _222
REMARK   91  A    between atoms: _222  and  _223
REMARK   92  A    between atoms: _222  and  _225
REMARK   93  A    between atoms: _228  and  _230
REMARK   94  A    between atoms: _230  and  _231
REMARK   95  A    between atoms: _230  and  _233
REMARK   96  A    between atoms: _233  and  _234
REMARK   97  A    between atoms: _239  and  _241
REMARK   98  A    between atoms: _241  and  _242
REMARK   99  A    between atoms: _241  and  _244
REMARK  100  A    between atoms: _244  and  _245
REMARK  101  A    between atoms: _248  and  _250
REMARK  102  A    between atoms: _250  and  _251
REMARK  103  A    between atoms: _250  and  _253
REMARK  104  A    between atoms: _253  and  _254
REMARK  105  A    between atoms: _257  and  _259
REMARK  106  A    between atoms: _259  and  _260
REMARK  107  A    between atoms: _262  and  _264
REMARK  108  A    between atoms: _264  and  _265
REMARK  109  A    between atoms: _264  and  _267
REMARK  110  A    between atoms: _267  and  _268
REMARK  111  A    between atoms: _268  and  _269
REMARK  112  A    between atoms: _269  and  _270
REMARK  113  A    between atoms: _279  and  _281
REMARK  114  A    between atoms: _281  and  _282
REMARK  115  A    between atoms: _281  and  _284
REMARK  116  A    between atoms: _284  and  _285
REMARK  117  A    between atoms: _290  and  _292
REMARK  118  A    between atoms: _292  and  _293
REMARK  119  A    between atoms: _292  and  _295
REMARK  120  A    between atoms: _295  and  _296
REMARK  121  A    between atoms: _296  and  _297
REMARK  122  A    between atoms: _297  and  _298
REMARK  123  A    between atoms: _308  and  _309
REMARK  124  A    between atoms: _314  and  _316
REMARK  125  A    between atoms: _316  and  _317
REMARK  126  A    between atoms: _316  and  _319
REMARK  127  A    between atoms: _319  and  _320
REMARK  128  A    between atoms: _323  and  _325
REMARK  129  A    between atoms: _325  and  _326
REMARK  130  A    between atoms: _325  and  _328
REMARK  131  A    between atoms: _328  and  _329
REMARK  132  A    between atoms: _332  and  _334
REMARK  133  A    between atoms: _334  and  _335
REMARK  134  A    between atoms: _334  and  _337
REMARK  135  A    between atoms: _337  and  _338
REMARK  136  A    between atoms: _341  and  _343
REMARK  137  A    between atoms: _343  and  _344
REMARK  138  A    between atoms: _343  and  _346
REMARK  139  A    between atoms: _346  and  _347
REMARK  140  A    between atoms: _350  and  _352
REMARK  141  A    between atoms: _352  and  _353
REMARK  142  A    between atoms: _352  and  _355
REMARK  143  A    between atoms: _355  and  _356
REMARK  144  A    between atoms: _359  and  _361
REMARK  145  A    between atoms: _361  and  _362
REMARK  146  A    between atoms: _364  and  _366
REMARK  147  A    between atoms: _366  and  _367
REMARK  148  A    between atoms: _370  and  _372
REMARK  149  A    between atoms: _372  and  _373
REMARK  150  A    between atoms: _372  and  _375
REMARK  151  A    between atoms: _375  and  _376
REMARK  152  A    between atoms: _379  and  _381
REMARK  153  A    between atoms: _381  and  _382
REMARK  154  A    between atoms: _381  and  _384
REMARK  155  A    between atoms: _384  and  _385
REMARK  156  A    between atoms: _388  and  _390
REMARK  157  A    between atoms: _390  and  _391
REMARK  158  A    between atoms: _390  and  _393
REMARK  159  A    between atoms: _393  and  _394
REMARK  160  A    between atoms: _397  and  _399
REMARK  161  A    between atoms: _399  and  _400
REMARK  162  A    between atoms: _399  and  _402
REMARK  163  A    between atoms: _405  and  _407
REMARK  164  A    between atoms: _407  and  _408
REMARK  165  A    between atoms: _407  and  _410
REMARK  166  A    between atoms: _410  and  _411
REMARK  167  A    between atoms: _411  and  _412
REMARK  168  A    between atoms: _412  and  _413
REMARK  169  A    between atoms: _413  and  _414
REMARK  170  A    between atoms: _418  and  _420
REMARK  171  A    between atoms: _420  and  _421
REMARK  172  A    between atoms: _420  and  _423
REMARK  173  A    between atoms: _423  and  _424
REMARK  174  A    between atoms: _424  and  _425
REMARK  175  A    between atoms: _427  and  _429
REMARK  176  A    between atoms: _429  and  _430
REMARK  177  A    between atoms: _429  and  _432
REMARK  178  A    between atoms: _432  and  _433
REMARK  179  A    between atoms: _436  and  _438
REMARK  180  A    between atoms: _438  and  _439
REMARK  181  A    between atoms: _441  and  _443
REMARK  182  A    between atoms: _443  and  _444
REMARK  183  A    between atoms: _446  and  _448
REMARK  184  A    between atoms: _448  and  _449
REMARK  185  A    between atoms: _448  and  _451
REMARK  186  A    between atoms: _454  and  _456
REMARK  187  A    between atoms: _456  and  _457
REMARK  188  A    between atoms: _459  and  _461
REMARK  189  A    between atoms: _461  and  _462
REMARK  190  A    between atoms: _464  and  _466
REMARK  191  A    between atoms: _466  and  _467
REMARK  192  A    between atoms: _466  and  _469
REMARK  193  A    between atoms: _469  and  _470
REMARK  194  A    between atoms: _476  and  _478
REMARK  195  A    between atoms: _478  and  _479
REMARK  196  A    between atoms: _478  and  _481
REMARK  197  A    between atoms: _481  and  _482
REMARK  198  A    between atoms: _485  and  _487
REMARK  199  A    between atoms: _487  and  _488
REMARK  200  A    between atoms: _487  and  _490
REMARK  201  A    between atoms: _493  and  _495
REMARK  202  A    between atoms: _495  and  _496
REMARK  203  A    between atoms: _495  and  _498
REMARK  204  A    between atoms: _498  and  _499
REMARK  205  A    between atoms: _503  and  _504
REMARK  206  A    between atoms: _509  and  _511
REMARK  207  A    between atoms: _511  and  _512
REMARK  208  A    between atoms: _511  and  _514
REMARK  209  A    between atoms: _514  and  _515
REMARK  210  A    between atoms: _519  and  _520
REMARK  211  A    between atoms: _525  and  _527
REMARK  212  A    between atoms: _527  and  _528
REMARK  213  A    between atoms: _527  and  _530
REMARK  214  A    between atoms: _533  and  _535
REMARK  215  A    between atoms: _535  and  _536
REMARK  216  A    between atoms: _535  and  _538
REMARK  217  A    between atoms: _538  and  _539
REMARK  218  A    between atoms: _544  and  _546
REMARK  219  A    between atoms: _546  and  _547
REMARK  220  A    between atoms: _546  and  _549
REMARK  221  A    between atoms: _549  and  _550
REMARK  222  A    between atoms: _553  and  _555
REMARK  223  A    between atoms: _555  and  _556
REMARK  224  A    between atoms: _555  and  _558
REMARK  225  A    between atoms: _558  and  _559
REMARK  226  A    between atoms: _562  and  _564
REMARK  227  A    between atoms: _564  and  _565
REMARK  228  A    between atoms: _567  and  _569
REMARK  229  A    between atoms: _569  and  _570
REMARK  230  A    between atoms: _569  and  _572
REMARK  231  A    between atoms: _572  and  _573
REMARK  232  A    between atoms: _573  and  _574
REMARK  233  A    between atoms: _574  and  _575
REMARK                            x       y       z     vdW  Elec       q    Type
REMARK                         _______ _______ _______ _____ _____    ______ ____
ROOT
ATOM      1  O   HOH     1      25.390  28.897  14.916  0.00  0.00    +0.000 OA
ENDROOT
TORSDOF 0
REMARK  Name = ../refined-set-2016/3cyx/3cyx_pocket.pdb
REMARK  233 active torsions:
REMARK  status: ('A' for Active; 'I' for Inactive)
REMARK    1  A    between atoms: _1  and  _3
REMARK    2  A    between atoms: _3  and  _4
REMARK    3  A    between atoms: _3  and  _6
REMARK    4  A    between atoms: _6  and  _7
REMARK    5  A    between atoms: _7  and  _8
REMARK    6  A    between atoms: _8  and  _9
REMARK    7  A    between atoms: _18  and  _20
REMARK    8  A    between atoms: _20  and  _21
REMARK    9  A    between atoms: _20  and  _23
REMARK   10  A    between atoms: _23  and  _24
REMARK   11  A    between atoms: _27  and  _29
REMARK   12  A    between atoms: _29  and  _30
REMARK   13  A    between atoms: _29  and  _32
REMARK   14  A    between atoms: _32  and  _33
REMARK   15  A    between atoms: _36  and  _38
REMARK   16  A    between atoms: _38  and  _39
REMARK   17  A    between atoms: _38  and  _41
REMARK   18  A    between atoms: _41  and  _42
REMARK   19  A    between atoms: _45  and  _47
REMARK   20  A    between atoms: _47  and  _48
REMARK   21  A    between atoms: _47  and  _50
REMARK   22  A    between atoms: _50  and  _51
REMARK   23  A    between atoms: _54  and  _56
REMARK   24  A    between atoms: _56  and  _57
REMARK   25  A    between atoms: _59  and  _61
REMARK   26  A    between atoms: _61  and  _62
REMARK   27  A    between atoms: _65  and  _67
REMARK   28  A    between atoms: _67  and  _68
REMARK   29  A    between atoms: _67  and  _70
REMARK   30  A    between atoms: _70  and  _71
REMARK   31  A    between atoms: _74  and  _76
REMARK   32  A    between atoms: _76  and  _77
REMARK   33  A    between atoms: _76  and  _79
REMARK   34  A    between atoms: _79  and  _80
REMARK   35  A    between atoms: _83  and  _85
REMARK   36  A    between atoms: _85  and  _86
REMARK   37  A    between atoms: _85  and  _88
REMARK   38  A    between atoms: _88  and  _89
REMARK   39  A    between atoms: _92  and  _94
REMARK   40  A    between atoms: _94  and  _95
REMARK   41  A    between atoms: _94  and  _97
REMARK   42  A    between atoms: _100  and  _102
REMARK   43  A    between atoms: _102  and  _103
REMARK   44  A    between atoms: _102  and  _105
REMARK   45  A    between atoms: _105  and  _106
REMARK   46  A    between atoms: _106  and  _107
REMARK   47  A    between atoms: _107  and  _108
REMARK   48  A    between atoms: _108  and  _109
REMARK   49  A    between atoms: _113  and  _115
REMARK   50  A    between atoms: _115  and  _116
REMARK   51  A    between atoms: _115  and  _118
REMARK   52  A    between atoms: _118  and  _119
REMARK   53  A    between atoms: _119  and  _120
REMARK   54  A    between atoms: _122  and  _124
REMARK   55  A    between atoms: _124  and  _125
REMARK   56  A    between atoms: _124  and  _127
REMARK   57  A    between atoms: _127  and  _128
REMARK   58  A    between atoms: _131  and  _133
REMARK   59  A    between atoms: _133  and  _134
REMARK   60  A    between atoms: _136  and  _138
REMARK   61  A    between atoms: _138  and  _139
REMARK   62  A    between atoms: _141  and  _143
REMARK   63  A    between atoms: _143  and  _144
REMARK   64  A    between atoms: _143  and  _146
REMARK   65  A    between atoms: _149  and  _151
REMARK   66  A    between atoms: _151  and  _152
REMARK   67  A    between atoms: _154  and  _156
REMARK   68  A    between atoms: _156  and  _157
REMARK   69  A    between atoms: _159  and  _161
REMARK   70  A    between atoms: _161  and  _162
REMARK   71  A    between atoms: _161  and  _164
REMARK   72  A    between atoms: _164  and  _165
REMARK   73  A    between atoms: _171  and  _173
REMARK   74  A    between atoms: _173  and  _174
REMARK   75  A    between atoms: _173  and  _176
REMARK   76  A    between atoms: _176  and  _177
REMARK   77  A    between atoms: _180  and  _182
REMARK   78  A    between atoms: _182  and  _183
REMARK   79  A    between atoms: _182  and  _185
REMARK   80  A    between atoms: _188  and  _190
REMARK   81  A    between atoms: _190  and  _191
REMARK   82  A    between atoms: _190  and  _193
REMARK   83  A    between atoms: _193  and  _194
REMARK   84  A    between atoms: _198  and  _199
REMARK   85  A    between atoms: _204  and  _206
REMARK   86  A    between atoms: _206  and  _207
REMARK   87  A    between atoms: _206  and  _209
REMARK   88  A    between atoms: _209  and  _210
REMARK   89  A    between atoms: _214  and  _215
REMARK   90  A    between atoms: _220  and  _222
REMARK   91  A    between atoms: _222  and  _223
REMARK   92  A    between atoms: _222  and  _225
REMARK   93  A    between atoms: _228  and  _230
REMARK   94  A    between atoms: _230  and  _231
REMARK   95  A    between atoms: _230  and  _233
REMARK   96  A    between atoms: _233  and  _234
REMARK   97  A    between atoms: _239  and  _241
REMARK   98  A    between atoms: _241  and  _242
REMARK   99  A    between atoms: _241  and  _244
REMARK  100  A    between atoms: _244  and  _245
REMARK  101  A    between atoms: _248  and  _250
REMARK  102  A    between atoms: _250  and  _251
REMARK  103  A    between atoms: _250  and  _253
REMARK  104  A    between atoms: _253  and  _254
REMARK  105  A    between atoms: _257  and  _259
REMARK  106  A    between atoms: _259  and  _260
REMARK  107  A    between atoms: _262  and  _264
REMARK  108  A    between atoms: _264  and  _265
REMARK  109  A    between atoms: _264  and  _267
REMARK  110  A    between atoms: _267  and  _268
REMARK  111  A    between atoms: _268  and  _269
REMARK  112  A    between atoms: _269  and  _270
REMARK  113  A    between atoms: _279  and  _281
REMARK  114  A    between atoms: _281  and  _282
REMARK  115  A    between atoms: _281  and  _284
REMARK  116  A    between atoms: _284  and  _285
REMARK  117  A    between atoms: _290  and  _292
REMARK  118  A    between atoms: _292  and  _293
REMARK  119  A    between atoms: _292  and  _295
REMARK  120  A    between atoms: _295  and  _296
REMARK  121  A    between atoms: _296  and  _297
REMARK  122  A    between atoms: _297  and  _298
REMARK  123  A    between atoms: _308  and  _309
REMARK  124  A    between atoms: _314  and  _316
REMARK  125  A    between atoms: _316  and  _317
REMARK  126  A    between atoms: _316  and  _319
REMARK  127  A    between atoms: _319  and  _320
REMARK  128  A    between atoms: _323  and  _325
REMARK  129  A    between atoms: _325  and  _326
REMARK  130  A    between atoms: _325  and  _328
REMARK  131  A    between atoms: _328  and  _329
REMARK  132  A    between atoms: _332  and  _334
REMARK  133  A    between atoms: _334  and  _335
REMARK  134  A    between atoms: _334  and  _337
REMARK  135  A    between atoms: _337  and  _338
REMARK  136  A    between atoms: _341  and  _343
REMARK  137  A    between atoms: _343  and  _344
REMARK  138  A    between atoms: _343  and  _346
REMARK  139  A    between atoms: _346  and  _347
REMARK  140  A    between atoms: _350  and  _352
REMARK  141  A    between atoms: _352  and  _353
REMARK  142  A    between atoms: _352  and  _355
REMARK  143  A    between atoms: _355  and  _356
REMARK  144  A    between atoms: _359  and  _361
REMARK  145  A    between atoms: _361  and  _362
REMARK  146  A    between atoms: _364  and  _366
REMARK  147  A    between atoms: _366  and  _367
REMARK  148  A    between atoms: _370  and  _372
REMARK  149  A    between atoms: _372  and  _373
REMARK  150  A    between atoms: _372  and  _375
REMARK  151  A    between atoms: _375  and  _376
REMARK  152  A    between atoms: _379  and  _381
REMARK  153  A    between atoms: _381  and  _382
REMARK  154  A    between atoms: _381  and  _384
REMARK  155  A    between atoms: _384  and  _385
REMARK  156  A    between atoms: _388  and  _390
REMARK  157  A    between atoms: _390  and  _391
REMARK  158  A    between atoms: _390  and  _393
REMARK  159  A    between atoms: _393  and  _394
REMARK  160  A    between atoms: _397  and  _399
REMARK  161  A    between atoms: _399  and  _400
REMARK  162  A    between atoms: _399  and  _402
REMARK  163  A    between atoms: _405  and  _407
REMARK  164  A    between atoms: _407  and  _408
REMARK  165  A    between atoms: _407  and  _410
REMARK  166  A    between atoms: _410  and  _411
REMARK  167  A    between atoms: _411  and  _412
REMARK  168  A    between atoms: _412  and  _413
REMARK  169  A    between atoms: _413  and  _414
REMARK  170  A    between atoms: _418  and  _420
REMARK  171  A    between atoms: _420  and  _421
REMARK  172  A    between atoms: _420  and  _423
REMARK  173  A    between atoms: _423  and  _424
REMARK  174  A    between atoms: _424  and  _425
REMARK  175  A    between atoms: _427  and  _429
REMARK  176  A    between atoms: _429  and  _430
REMARK  177  A    between atoms: _429  and  _432
REMARK  178  A    between atoms: _432  and  _433
REMARK  179  A    between atoms: _436  and  _438
REMARK  180  A    between atoms: _438  and  _439
REMARK  181  A    between atoms: _441  and  _443
REMARK  182  A    between atoms: _443  and  _444
REMARK  183  A    between atoms: _446  and  _448
REMARK  184  A    between atoms: _448  and  _449
REMARK  185  A    between atoms: _448  and  _451
REMARK  186  A    between atoms: _454  and  _456
REMARK  187  A    between atoms: _456  and  _457
REMARK  188  A    between atoms: _459  and  _461
REMARK  189  A    between atoms: _461  and  _462
REMARK  190  A    between atoms: _464  and  _466
REMARK  191  A    between atoms: _466  and  _467
REMARK  192  A    between atoms: _466  and  _469
REMARK  193  A    between atoms: _469  and  _470
REMARK  194  A    between atoms: _476  and  _478
REMARK  195  A    between atoms: _478  and  _479
REMARK  196  A    between atoms: _478  and  _481
REMARK  197  A    between atoms: _481  and  _482
REMARK  198  A    between atoms: _485  and  _487
REMARK  199  A    between atoms: _487  and  _488
REMARK  200  A    between atoms: _487  and  _490
REMARK  201  A    between atoms: _493  and  _495
REMARK  202  A    between atoms: _495  and  _496
REMARK  203  A    between atoms: _495  and  _498
REMARK  204  A    between atoms: _498  and  _499
REMARK  205  A    between atoms: _503  and  _504
REMARK  206  A    between atoms: _509  and  _511
REMARK  207  A    between atoms: _511  and  _512
REMARK  208  A    between atoms: _511  and  _514
REMARK  209  A    between atoms: _514  and  _515
REMARK  210  A    between atoms: _519  and  _520
REMARK  211  A    between atoms: _525  and  _527
REMARK  212  A    between atoms: _527  and  _528
REMARK  213  A    between atoms: _527  and  _530
REMARK  214  A    between atoms: _533  and  _535
REMARK  215  A    between atoms: _535  and  _536
REMARK  216  A    between atoms: _535  and  _538
REMARK  217  A    between atoms: _538  and  _539
REMARK  218  A    between atoms: _544  and  _546
REMARK  219  A    between atoms: _546  and  _547
REMARK  220  A    between atoms: _546  and  _549
REMARK  221  A    between atoms: _549  and  _550
REMARK  222  A    between atoms: _553  and  _555
REMARK  223  A    between atoms: _555  and  _556
REMARK  224  A    between atoms: _555  and  _558
REMARK  225  A    between atoms: _558  and  _559
REMARK  226  A    between atoms: _562  and  _564
REMARK  227  A    between atoms: _564  and  _565
REMARK  228  A    between atoms: _567  and  _569
REMARK  229  A    between atoms: _569  and  _570
REMARK  230  A    between atoms: _569  and  _572
REMARK  231  A    between atoms: _572  and  _573
REMARK  232  A    between atoms: _573  and  _574
REMARK  233  A    between atoms: _574  and  _575
REMARK                            x       y       z     vdW  Elec       q    Type
REMARK                         _______ _______ _______ _____ _____    ______ ____
ROOT
ATOM      1  O   HOH     1      21.558  35.139  17.423  0.00  0.00    +0.000 OA
ENDROOT
TORSDOF 0
REMARK  Name = ../refined-set-2016/3cyx/3cyx_pocket.pdb
REMARK  233 active torsions:
REMARK  status: ('A' for Active; 'I' for Inactive)
REMARK    1  A    between atoms: _1  and  _3
REMARK    2  A    between atoms: _3  and  _4
REMARK    3  A    between atoms: _3  and  _6
REMARK    4  A    between atoms: _6  and  _7
REMARK    5  A    between atoms: _7  and  _8
REMARK    6  A    between atoms: _8  and  _9
REMARK    7  A    between atoms: _18  and  _20
REMARK    8  A    between atoms: _20  and  _21
REMARK    9  A    between atoms: _20  and  _23
REMARK   10  A    between atoms: _23  and  _24
REMARK   11  A    between atoms: _27  and  _29
REMARK   12  A    between atoms: _29  and  _30
REMARK   13  A    between atoms: _29  and  _32
REMARK   14  A    between atoms: _32  and  _33
REMARK   15  A    between atoms: _36  and  _38
REMARK   16  A    between atoms: _38  and  _39
REMARK   17  A    between atoms: _38  and  _41
REMARK   18  A    between atoms: _41  and  _42
REMARK   19  A    between atoms: _45  and  _47
REMARK   20  A    between atoms: _47  and  _48
REMARK   21  A    between atoms: _47  and  _50
REMARK   22  A    between atoms: _50  and  _51
REMARK   23  A    between atoms: _54  and  _56
REMARK   24  A    between atoms: _56  and  _57
REMARK   25  A    between atoms: _59  and  _61
REMARK   26  A    between atoms: _61  and  _62
REMARK   27  A    between atoms: _65  and  _67
REMARK   28  A    between atoms: _67  and  _68
REMARK   29  A    between atoms: _67  and  _70
REMARK   30  A    between atoms: _70  and  _71
REMARK   31  A    between atoms: _74  and  _76
REMARK   32  A    between atoms: _76  and  _77
REMARK   33  A    between atoms: _76  and  _79
REMARK   34  A    between atoms: _79  and  _80
REMARK   35  A    between atoms: _83  and  _85
REMARK   36  A    between atoms: _85  and  _86
REMARK   37  A    between atoms: _85  and  _88
REMARK   38  A    between atoms: _88  and  _89
REMARK   39  A    between atoms: _92  and  _94
REMARK   40  A    between atoms: _94  and  _95
REMARK   41  A    between atoms: _94  and  _97
REMARK   42  A    between atoms: _100  and  _102
REMARK   43  A    between atoms: _102  and  _103
REMARK   44  A    between atoms: _102  and  _105
REMARK   45  A    between atoms: _105  and  _106
REMARK   46  A    between atoms: _106  and  _107
REMARK   47  A    between atoms: _107  and  _108
REMARK   48  A    between atoms: _108  and  _109
REMARK   49  A    between atoms: _113  and  _115
REMARK   50  A    between atoms: _115  and  _116
REMARK   51  A    between atoms: _115  and  _118
REMARK   52  A    between atoms: _118  and  _119
REMARK   53  A    between atoms: _119  and  _120
REMARK   54  A    between atoms: _122  and  _124
REMARK   55  A    between atoms: _124  and  _125
REMARK   56  A    between atoms: _124  and  _127
REMARK   57  A    between atoms: _127  and  _128
REMARK   58  A    between atoms: _131  and  _133
REMARK   59  A    between atoms: _133  and  _134
REMARK   60  A    between atoms: _136  and  _138
REMARK   61  A    between atoms: _138  and  _139
REMARK   62  A    between atoms: _141  and  _143
REMARK   63  A    between atoms: _143  and  _144
REMARK   64  A    between atoms: _143  and  _146
REMARK   65  A    between atoms: _149  and  _151
REMARK   66  A    between atoms: _151  and  _152
REMARK   67  A    between atoms: _154  and  _156
REMARK   68  A    between atoms: _156  and  _157
REMARK   69  A    between atoms: _159  and  _161
REMARK   70  A    between atoms: _161  and  _162
REMARK   71  A    between atoms: _161  and  _164
REMARK   72  A    between atoms: _164  and  _165
REMARK   73  A    between atoms: _171  and  _173
REMARK   74  A    between atoms: _173  and  _174
REMARK   75  A    between atoms: _173  and  _176
REMARK   76  A    between atoms: _176  and  _177
REMARK   77  A    between atoms: _180  and  _182
REMARK   78  A    between atoms: _182  and  _183
REMARK   79  A    between atoms: _182  and  _185
REMARK   80  A    between atoms: _188  and  _190
REMARK   81  A    between atoms: _190  and  _191
REMARK   82  A    between atoms: _190  and  _193
REMARK   83  A    between atoms: _193  and  _194
REMARK   84  A    between atoms: _198  and  _199
REMARK   85  A    between atoms: _204  and  _206
REMARK   86  A    between atoms: _206  and  _207
REMARK   87  A    between atoms: _206  and  _209
REMARK   88  A    between atoms: _209  and  _210
REMARK   89  A    between atoms: _214  and  _215
REMARK   90  A    between atoms: _220  and  _222
REMARK   91  A    between atoms: _222  and  _223
REMARK   92  A    between atoms: _222  and  _225
REMARK   93  A    between atoms: _228  and  _230
REMARK   94  A    between atoms: _230  and  _231
REMARK   95  A    between atoms: _230  and  _233
REMARK   96  A    between atoms: _233  and  _234
REMARK   97  A    between atoms: _239  and  _241
REMARK   98  A    between atoms: _241  and  _242
REMARK   99  A    between atoms: _241  and  _244
REMARK  100  A    between atoms: _244  and  _245
REMARK  101  A    between atoms: _248  and  _250
REMARK  102  A    between atoms: _250  and  _251
REMARK  103  A    between atoms: _250  and  _253
REMARK  104  A    between atoms: _253  and  _254
REMARK  105  A    between atoms: _257  and  _259
REMARK  106  A    between atoms: _259  and  _260
REMARK  107  A    between atoms: _262  and  _264
REMARK  108  A    between atoms: _264  and  _265
REMARK  109  A    between atoms: _264  and  _267
REMARK  110  A    between atoms: _267  and  _268
REMARK  111  A    between atoms: _268  and  _269
REMARK  112  A    between atoms: _269  and  _270
REMARK  113  A    between atoms: _279  and  _281
REMARK  114  A    between atoms: _281  and  _282
REMARK  115  A    between atoms: _281  and  _284
REMARK  116  A    between atoms: _284  and  _285
REMARK  117  A    between atoms: _290  and  _292
REMARK  118  A    between atoms: _292  and  _293
REMARK  119  A    between atoms: _292  and  _295
REMARK  120  A    between atoms: _295  and  _296
REMARK  121  A    between atoms: _296  and  _297
REMARK  122  A    between atoms: _297  and  _298
REMARK  123  A    between atoms: _308  and  _309
REMARK  124  A    between atoms: _314  and  _316
REMARK  125  A    between atoms: _316  and  _317
REMARK  126  A    between atoms: _316  and  _319
REMARK  127  A    between atoms: _319  and  _320
REMARK  128  A    between atoms: _323  and  _325
REMARK  129  A    between atoms: _325  and  _326
REMARK  130  A    between atoms: _325  and  _328
REMARK  131  A    between atoms: _328  and  _329
REMARK  132  A    between atoms: _332  and  _334
REMARK  133  A    between atoms: _334  and  _335
REMARK  134  A    between atoms: _334  and  _337
REMARK  135  A    between atoms: _337  and  _338
REMARK  136  A    between atoms: _341  and  _343
REMARK  137  A    between atoms: _343  and  _344
REMARK  138  A    between atoms: _343  and  _346
REMARK  139  A    between atoms: _346  and  _347
REMARK  140  A    between atoms: _350  and  _352
REMARK  141  A    between atoms: _352  and  _353
REMARK  142  A    between atoms: _352  and  _355
REMARK  143  A    between atoms: _355  and  _356
REMARK  144  A    between atoms: _359  and  _361
REMARK  145  A    between atoms: _361  and  _362
REMARK  146  A    between atoms: _364  and  _366
REMARK  147  A    between atoms: _366  and  _367
REMARK  148  A    between atoms: _370  and  _372
REMARK  149  A    between atoms: _372  and  _373
REMARK  150  A    between atoms: _372  and  _375
REMARK  151  A    between atoms: _375  and  _376
REMARK  152  A    between atoms: _379  and  _381
REMARK  153  A    between atoms: _381  and  _382
REMARK  154  A    between atoms: _381  and  _384
REMARK  155  A    between atoms: _384  and  _385
REMARK  156  A    between atoms: _388  and  _390
REMARK  157  A    between atoms: _390  and  _391
REMARK  158  A    between atoms: _390  and  _393
REMARK  159  A    between atoms: _393  and  _394
REMARK  160  A    between atoms: _397  and  _399
REMARK  161  A    between atoms: _399  and  _400
REMARK  162  A    between atoms: _399  and  _402
REMARK  163  A    between atoms: _405  and  _407
REMARK  164  A    between atoms: _407  and  _408
REMARK  165  A    between atoms: _407  and  _410
REMARK  166  A    between atoms: _410  and  _411
REMARK  167  A    between atoms: _411  and  _412
REMARK  168  A    between atoms: _412  and  _413
REMARK  169  A    between atoms: _413  and  _414
REMARK  170  A    between atoms: _418  and  _420
REMARK  171  A    between atoms: _420  and  _421
REMARK  172  A    between atoms: _420  and  _423
REMARK  173  A    between atoms: _423  and  _424
REMARK  174  A    between atoms: _424  and  _425
REMARK  175  A    between atoms: _427  and  _429
REMARK  176  A    between atoms: _429  and  _430
REMARK  177  A    between atoms: _429  and  _432
REMARK  178  A    between atoms: _432  and  _433
REMARK  179  A    between atoms: _436  and  _438
REMARK  180  A    between atoms: _438  and  _439
REMARK  181  A    between atoms: _441  and  _443
REMARK  182  A    between atoms: _443  and  _444
REMARK  183  A    between atoms: _446  and  _448
REMARK  184  A    between atoms: _448  and  _449
REMARK  185  A    between atoms: _448  and  _451
REMARK  186  A    between atoms: _454  and  _456
REMARK  187  A    between atoms: _456  and  _457
REMARK  188  A    between atoms: _459  and  _461
REMARK  189  A    between atoms: _461  and  _462
REMARK  190  A    between atoms: _464  and  _466
REMARK  191  A    between atoms: _466  and  _467
REMARK  192  A    between atoms: _466  and  _469
REMARK  193  A    between atoms: _469  and  _470
REMARK  194  A    between atoms: _476  and  _478
REMARK  195  A    between atoms: _478  and  _479
REMARK  196  A    between atoms: _478  and  _481
REMARK  197  A    between atoms: _481  and  _482
REMARK  198  A    between atoms: _485  and  _487
REMARK  199  A    between atoms: _487  and  _488
REMARK  200  A    between atoms: _487  and  _490
REMARK  201  A    between atoms: _493  and  _495
REMARK  202  A    between atoms: _495  and  _496
REMARK  203  A    between atoms: _495  and  _498
REMARK  204  A    between atoms: _498  and  _499
REMARK  205  A    between atoms: _503  and  _504
REMARK  206  A    between atoms: _509  and  _511
REMARK  207  A    between atoms: _511  and  _512
REMARK  208  A    between atoms: _511  and  _514
REMARK  209  A    between atoms: _514  and  _515
REMARK  210  A    between atoms: _519  and  _520
REMARK  211  A    between atoms: _525  and  _527
REMARK  212  A    between atoms: _527  and  _528
REMARK  213  A    between atoms: _527  and  _530
REMARK  214  A    between atoms: _533  and  _535
REMARK  215  A    between atoms: _535  and  _536
REMARK  216  A    between atoms: _535  and  _538
REMARK  217  A    between atoms: _538  and  _539
REMARK  218  A    between atoms: _544  and  _546
REMARK  219  A    between atoms: _546  and  _547
REMARK  220  A    between atoms: _546  and  _549
REMARK  221  A    between atoms: _549  and  _550
REMARK  222  A    between atoms: _553  and  _555
REMARK  223  A    between atoms: _555  and  _556
REMARK  224  A    between atoms: _555  and  _558
REMARK  225  A    between atoms: _558  and  _559
REMARK  226  A    between atoms: _562  and  _564
REMARK  227  A    between atoms: _564  and  _565
REMARK  228  A    between atoms: _567  and  _569
REMARK  229  A    between atoms: _569  and  _570
REMARK  230  A    between atoms: _569  and  _572
REMARK  231  A    between atoms: _572  and  _573
REMARK  232  A    between atoms: _573  and  _574
REMARK  233  A    between atoms: _574  and  _575
REMARK                            x       y       z     vdW  Elec       q    Type
REMARK                         _______ _______ _______ _____ _____    ______ ____
ROOT
ATOM      1  O   HOH     1      25.509  30.399  17.162  0.00  0.00    +0.000 OA
ENDROOT
TORSDOF 0
REMARK  Name = ../refined-set-2016/3cyx/3cyx_pocket.pdb
REMARK  233 active torsions:
REMARK  status: ('A' for Active; 'I' for Inactive)
REMARK    1  A    between atoms: _1  and  _3
REMARK    2  A    between atoms: _3  and  _4
REMARK    3  A    between atoms: _3  and  _6
REMARK    4  A    between atoms: _6  and  _7
REMARK    5  A    between atoms: _7  and  _8
REMARK    6  A    between atoms: _8  and  _9
REMARK    7  A    between atoms: _18  and  _20
REMARK    8  A    between atoms: _20  and  _21
REMARK    9  A    between atoms: _20  and  _23
REMARK   10  A    between atoms: _23  and  _24
REMARK   11  A    between atoms: _27  and  _29
REMARK   12  A    between atoms: _29  and  _30
REMARK   13  A    between atoms: _29  and  _32
REMARK   14  A    between atoms: _32  and  _33
REMARK   15  A    between atoms: _36  and  _38
REMARK   16  A    between atoms: _38  and  _39
REMARK   17  A    between atoms: _38  and  _41
REMARK   18  A    between atoms: _41  and  _42
REMARK   19  A    between atoms: _45  and  _47
REMARK   20  A    between atoms: _47  and  _48
REMARK   21  A    between atoms: _47  and  _50
REMARK   22  A    between atoms: _50  and  _51
REMARK   23  A    between atoms: _54  and  _56
REMARK   24  A    between atoms: _56  and  _57
REMARK   25  A    between atoms: _59  and  _61
REMARK   26  A    between atoms: _61  and  _62
REMARK   27  A    between atoms: _65  and  _67
REMARK   28  A    between atoms: _67  and  _68
REMARK   29  A    between atoms: _67  and  _70
REMARK   30  A    between atoms: _70  and  _71
REMARK   31  A    between atoms: _74  and  _76
REMARK   32  A    between atoms: _76  and  _77
REMARK   33  A    between atoms: _76  and  _79
REMARK   34  A    between atoms: _79  and  _80
REMARK   35  A    between atoms: _83  and  _85
REMARK   36  A    between atoms: _85  and  _86
REMARK   37  A    between atoms: _85  and  _88
REMARK   38  A    between atoms: _88  and  _89
REMARK   39  A    between atoms: _92  and  _94
REMARK   40  A    between atoms: _94  and  _95
REMARK   41  A    between atoms: _94  and  _97
REMARK   42  A    between atoms: _100  and  _102
REMARK   43  A    between atoms: _102  and  _103
REMARK   44  A    between atoms: _102  and  _105
REMARK   45  A    between atoms: _105  and  _106
REMARK   46  A    between atoms: _106  and  _107
REMARK   47  A    between atoms: _107  and  _108
REMARK   48  A    between atoms: _108  and  _109
REMARK   49  A    between atoms: _113  and  _115
REMARK   50  A    between atoms: _115  and  _116
REMARK   51  A    between atoms: _115  and  _118
REMARK   52  A    between atoms: _118  and  _119
REMARK   53  A    between atoms: _119  and  _120
REMARK   54  A    between atoms: _122  and  _124
REMARK   55  A    between atoms: _124  and  _125
REMARK   56  A    between atoms: _124  and  _127
REMARK   57  A    between atoms: _127  and  _128
REMARK   58  A    between atoms: _131  and  _133
REMARK   59  A    between atoms: _133  and  _134
REMARK   60  A    between atoms: _136  and  _138
REMARK   61  A    between atoms: _138  and  _139
REMARK   62  A    between atoms: _141  and  _143
REMARK   63  A    between atoms: _143  and  _144
REMARK   64  A    between atoms: _143  and  _146
REMARK   65  A    between atoms: _149  and  _151
REMARK   66  A    between atoms: _151  and  _152
REMARK   67  A    between atoms: _154  and  _156
REMARK   68  A    between atoms: _156  and  _157
REMARK   69  A    between atoms: _159  and  _161
REMARK   70  A    between atoms: _161  and  _162
REMARK   71  A    between atoms: _161  and  _164
REMARK   72  A    between atoms: _164  and  _165
REMARK   73  A    between atoms: _171  and  _173
REMARK   74  A    between atoms: _173  and  _174
REMARK   75  A    between atoms: _173  and  _176
REMARK   76  A    between atoms: _176  and  _177
REMARK   77  A    between atoms: _180  and  _182
REMARK   78  A    between atoms: _182  and  _183
REMARK   79  A    between atoms: _182  and  _185
REMARK   80  A    between atoms: _188  and  _190
REMARK   81  A    between atoms: _190  and  _191
REMARK   82  A    between atoms: _190  and  _193
REMARK   83  A    between atoms: _193  and  _194
REMARK   84  A    between atoms: _198  and  _199
REMARK   85  A    between atoms: _204  and  _206
REMARK   86  A    between atoms: _206  and  _207
REMARK   87  A    between atoms: _206  and  _209
REMARK   88  A    between atoms: _209  and  _210
REMARK   89  A    between atoms: _214  and  _215
REMARK   90  A    between atoms: _220  and  _222
REMARK   91  A    between atoms: _222  and  _223
REMARK   92  A    between atoms: _222  and  _225
REMARK   93  A    between atoms: _228  and  _230
REMARK   94  A    between atoms: _230  and  _231
REMARK   95  A    between atoms: _230  and  _233
REMARK   96  A    between atoms: _233  and  _234
REMARK   97  A    between atoms: _239  and  _241
REMARK   98  A    between atoms: _241  and  _242
REMARK   99  A    between atoms: _241  and  _244
REMARK  100  A    between atoms: _244  and  _245
REMARK  101  A    between atoms: _248  and  _250
REMARK  102  A    between atoms: _250  and  _251
REMARK  103  A    between atoms: _250  and  _253
REMARK  104  A    between atoms: _253  and  _254
REMARK  105  A    between atoms: _257  and  _259
REMARK  106  A    between atoms: _259  and  _260
REMARK  107  A    between atoms: _262  and  _264
REMARK  108  A    between atoms: _264  and  _265
REMARK  109  A    between atoms: _264  and  _267
REMARK  110  A    between atoms: _267  and  _268
REMARK  111  A    between atoms: _268  and  _269
REMARK  112  A    between atoms: _269  and  _270
REMARK  113  A    between atoms: _279  and  _281
REMARK  114  A    between atoms: _281  and  _282
REMARK  115  A    between atoms: _281  and  _284
REMARK  116  A    between atoms: _284  and  _285
REMARK  117  A    between atoms: _290  and  _292
REMARK  118  A    between atoms: _292  and  _293
REMARK  119  A    between atoms: _292  and  _295
REMARK  120  A    between atoms: _295  and  _296
REMARK  121  A    between atoms: _296  and  _297
REMARK  122  A    between atoms: _297  and  _298
REMARK  123  A    between atoms: _308  and  _309
REMARK  124  A    between atoms: _314  and  _316
REMARK  125  A    between atoms: _316  and  _317
REMARK  126  A    between atoms: _316  and  _319
REMARK  127  A    between atoms: _319  and  _320
REMARK  128  A    between atoms: _323  and  _325
REMARK  129  A    between atoms: _325  and  _326
REMARK  130  A    between atoms: _325  and  _328
REMARK  131  A    between atoms: _328  and  _329
REMARK  132  A    between atoms: _332  and  _334
REMARK  133  A    between atoms: _334  and  _335
REMARK  134  A    between atoms: _334  and  _337
REMARK  135  A    between atoms: _337  and  _338
REMARK  136  A    between atoms: _341  and  _343
REMARK  137  A    between atoms: _343  and  _344
REMARK  138  A    between atoms: _343  and  _346
REMARK  139  A    between atoms: _346  and  _347
REMARK  140  A    between atoms: _350  and  _352
REMARK  141  A    between atoms: _352  and  _353
REMARK  142  A    between atoms: _352  and  _355
REMARK  143  A    between atoms: _355  and  _356
REMARK  144  A    between atoms: _359  and  _361
REMARK  145  A    between atoms: _361  and  _362
REMARK  146  A    between atoms: _364  and  _366
REMARK  147  A    between atoms: _366  and  _367
REMARK  148  A    between atoms: _370  and  _372
REMARK  149  A    between atoms: _372  and  _373
REMARK  150  A    between atoms: _372  and  _375
REMARK  151  A    between atoms: _375  and  _376
REMARK  152  A    between atoms: _379  and  _381
REMARK  153  A    between atoms: _381  and  _382
REMARK  154  A    between atoms: _381  and  _384
REMARK  155  A    between atoms: _384  and  _385
REMARK  156  A    between atoms: _388  and  _390
REMARK  157  A    between atoms: _390  and  _391
REMARK  158  A    between atoms: _390  and  _393
REMARK  159  A    between atoms: _393  and  _394
REMARK  160  A    between atoms: _397  and  _399
REMARK  161  A    between atoms: _399  and  _400
REMARK  162  A    between atoms: _399  and  _402
REMARK  163  A    between atoms: _405  and  _407
REMARK  164  A    between atoms: _407  and  _408
REMARK  165  A    between atoms: _407  and  _410
REMARK  166  A    between atoms: _410  and  _411
REMARK  167  A    between atoms: _411  and  _412
REMARK  168  A    between atoms: _412  and  _413
REMARK  169  A    between atoms: _413  and  _414
REMARK  170  A    between atoms: _418  and  _420
REMARK  171  A    between atoms: _420  and  _421
REMARK  172  A    between atoms: _420  and  _423
REMARK  173  A    between atoms: _423  and  _424
REMARK  174  A    between atoms: _424  and  _425
REMARK  175  A    between atoms: _427  and  _429
REMARK  176  A    between atoms: _429  and  _430
REMARK  177  A    between atoms: _429  and  _432
REMARK  178  A    between atoms: _432  and  _433
REMARK  179  A    between atoms: _436  and  _438
REMARK  180  A    between atoms: _438  and  _439
REMARK  181  A    between atoms: _441  and  _443
REMARK  182  A    between atoms: _443  and  _444
REMARK  183  A    between atoms: _446  and  _448
REMARK  184  A    between atoms: _448  and  _449
REMARK  185  A    between atoms: _448  and  _451
REMARK  186  A    between atoms: _454  and  _456
REMARK  187  A    between atoms: _456  and  _457
REMARK  188  A    between atoms: _459  and  _461
REMARK  189  A    between atoms: _461  and  _462
REMARK  190  A    between atoms: _464  and  _466
REMARK  191  A    between atoms: _466  and  _467
REMARK  192  A    between atoms: _466  and  _469
REMARK  193  A    between atoms: _469  and  _470
REMARK  194  A    between atoms: _476  and  _478
REMARK  195  A    between atoms: _478  and  _479
REMARK  196  A    between atoms: _478  and  _481
REMARK  197  A    between atoms: _481  and  _482
REMARK  198  A    between atoms: _485  and  _487
REMARK  199  A    between atoms: _487  and  _488
REMARK  200  A    between atoms: _487  and  _490
REMARK  201  A    between atoms: _493  and  _495
REMARK  202  A    between atoms: _495  and  _496
REMARK  203  A    between atoms: _495  and  _498
REMARK  204  A    between atoms: _498  and  _499
REMARK  205  A    between atoms: _503  and  _504
REMARK  206  A    between atoms: _509  and  _511
REMARK  207  A    between atoms: _511  and  _512
REMARK  208  A    between atoms: _511  and  _514
REMARK  209  A    between atoms: _514  and  _515
REMARK  210  A    between atoms: _519  and  _520
REMARK  211  A    between atoms: _525  and  _527
REMARK  212  A    between atoms: _527  and  _528
REMARK  213  A    between atoms: _527  and  _530
REMARK  214  A    between atoms: _533  and  _535
REMARK  215  A    between atoms: _535  and  _536
REMARK  216  A    between atoms: _535  and  _538
REMARK  217  A    between atoms: _538  and  _539
REMARK  218  A    between atoms: _544  and  _546
REMARK  219  A    between atoms: _546  and  _547
REMARK  220  A    between atoms: _546  and  _549
REMARK  221  A    between atoms: _549  and  _550
REMARK  222  A    between atoms: _553  and  _555
REMARK  223  A    between atoms: _555  and  _556
REMARK  224  A    between atoms: _555  and  _558
REMARK  225  A    between atoms: _558  and  _559
REMARK  226  A    between atoms: _562  and  _564
REMARK  227  A    between atoms: _564  and  _565
REMARK  228  A    between atoms: _567  and  _569
REMARK  229  A    between atoms: _569  and  _570
REMARK  230  A    between atoms: _569  and  _572
REMARK  231  A    between atoms: _572  and  _573
REMARK  232  A    between atoms: _573  and  _574
REMARK  233  A    between atoms: _574  and  _575
REMARK                            x       y       z     vdW  Elec       q    Type
REMARK                         _______ _______ _______ _____ _____    ______ ____
ROOT
ATOM      1  O   HOH     1      24.972  32.688  15.475  0.00  0.00    +0.000 OA
ENDROOT
TORSDOF 0
REMARK  Name = ../refined-set-2016/3cyx/3cyx_pocket.pdb
REMARK  233 active torsions:
REMARK  status: ('A' for Active; 'I' for Inactive)
REMARK    1  A    between atoms: _1  and  _3
REMARK    2  A    between atoms: _3  and  _4
REMARK    3  A    between atoms: _3  and  _6
REMARK    4  A    between atoms: _6  and  _7
REMARK    5  A    between atoms: _7  and  _8
REMARK    6  A    between atoms: _8  and  _9
REMARK    7  A    between atoms: _18  and  _20
REMARK    8  A    between atoms: _20  and  _21
REMARK    9  A    between atoms: _20  and  _23
REMARK   10  A    between atoms: _23  and  _24
REMARK   11  A    between atoms: _27  and  _29
REMARK   12  A    between atoms: _29  and  _30
REMARK   13  A    between atoms: _29  and  _32
REMARK   14  A    between atoms: _32  and  _33
REMARK   15  A    between atoms: _36  and  _38
REMARK   16  A    between atoms: _38  and  _39
REMARK   17  A    between atoms: _38  and  _41
REMARK   18  A    between atoms: _41  and  _42
REMARK   19  A    between atoms: _45  and  _47
REMARK   20  A    between atoms: _47  and  _48
REMARK   21  A    between atoms: _47  and  _50
REMARK   22  A    between atoms: _50  and  _51
REMARK   23  A    between atoms: _54  and  _56
REMARK   24  A    between atoms: _56  and  _57
REMARK   25  A    between atoms: _59  and  _61
REMARK   26  A    between atoms: _61  and  _62
REMARK   27  A    between atoms: _65  and  _67
REMARK   28  A    between atoms: _67  and  _68
REMARK   29  A    between atoms: _67  and  _70
REMARK   30  A    between atoms: _70  and  _71
REMARK   31  A    between atoms: _74  and  _76
REMARK   32  A    between atoms: _76  and  _77
REMARK   33  A    between atoms: _76  and  _79
REMARK   34  A    between atoms: _79  and  _80
REMARK   35  A    between atoms: _83  and  _85
REMARK   36  A    between atoms: _85  and  _86
REMARK   37  A    between atoms: _85  and  _88
REMARK   38  A    between atoms: _88  and  _89
REMARK   39  A    between atoms: _92  and  _94
REMARK   40  A    between atoms: _94  and  _95
REMARK   41  A    between atoms: _94  and  _97
REMARK   42  A    between atoms: _100  and  _102
REMARK   43  A    between atoms: _102  and  _103
REMARK   44  A    between atoms: _102  and  _105
REMARK   45  A    between atoms: _105  and  _106
REMARK   46  A    between atoms: _106  and  _107
REMARK   47  A    between atoms: _107  and  _108
REMARK   48  A    between atoms: _108  and  _109
REMARK   49  A    between atoms: _113  and  _115
REMARK   50  A    between atoms: _115  and  _116
REMARK   51  A    between atoms: _115  and  _118
REMARK   52  A    between atoms: _118  and  _119
REMARK   53  A    between atoms: _119  and  _120
REMARK   54  A    between atoms: _122  and  _124
REMARK   55  A    between atoms: _124  and  _125
REMARK   56  A    between atoms: _124  and  _127
REMARK   57  A    between atoms: _127  and  _128
REMARK   58  A    between atoms: _131  and  _133
REMARK   59  A    between atoms: _133  and  _134
REMARK   60  A    between atoms: _136  and  _138
REMARK   61  A    between atoms: _138  and  _139
REMARK   62  A    between atoms: _141  and  _143
REMARK   63  A    between atoms: _143  and  _144
REMARK   64  A    between atoms: _143  and  _146
REMARK   65  A    between atoms: _149  and  _151
REMARK   66  A    between atoms: _151  and  _152
REMARK   67  A    between atoms: _154  and  _156
REMARK   68  A    between atoms: _156  and  _157
REMARK   69  A    between atoms: _159  and  _161
REMARK   70  A    between atoms: _161  and  _162
REMARK   71  A    between atoms: _161  and  _164
REMARK   72  A    between atoms: _164  and  _165
REMARK   73  A    between atoms: _171  and  _173
REMARK   74  A    between atoms: _173  and  _174
REMARK   75  A    between atoms: _173  and  _176
REMARK   76  A    between atoms: _176  and  _177
REMARK   77  A    between atoms: _180  and  _182
REMARK   78  A    between atoms: _182  and  _183
REMARK   79  A    between atoms: _182  and  _185
REMARK   80  A    between atoms: _188  and  _190
REMARK   81  A    between atoms: _190  and  _191
REMARK   82  A    between atoms: _190  and  _193
REMARK   83  A    between atoms: _193  and  _194
REMARK   84  A    between atoms: _198  and  _199
REMARK   85  A    between atoms: _204  and  _206
REMARK   86  A    between atoms: _206  and  _207
REMARK   87  A    between atoms: _206  and  _209
REMARK   88  A    between atoms: _209  and  _210
REMARK   89  A    between atoms: _214  and  _215
REMARK   90  A    between atoms: _220  and  _222
REMARK   91  A    between atoms: _222  and  _223
REMARK   92  A    between atoms: _222  and  _225
REMARK   93  A    between atoms: _228  and  _230
REMARK   94  A    between atoms: _230  and  _231
REMARK   95  A    between atoms: _230  and  _233
REMARK   96  A    between atoms: _233  and  _234
REMARK   97  A    between atoms: _239  and  _241
REMARK   98  A    between atoms: _241  and  _242
REMARK   99  A    between atoms: _241  and  _244
REMARK  100  A    between atoms: _244  and  _245
REMARK  101  A    between atoms: _248  and  _250
REMARK  102  A    between atoms: _250  and  _251
REMARK  103  A    between atoms: _250  and  _253
REMARK  104  A    between atoms: _253  and  _254
REMARK  105  A    between atoms: _257  and  _259
REMARK  106  A    between atoms: _259  and  _260
REMARK  107  A    between atoms: _262  and  _264
REMARK  108  A    between atoms: _264  and  _265
REMARK  109  A    between atoms: _264  and  _267
REMARK  110  A    between atoms: _267  and  _268
REMARK  111  A    between atoms: _268  and  _269
REMARK  112  A    between atoms: _269  and  _270
REMARK  113  A    between atoms: _279  and  _281
REMARK  114  A    between atoms: _281  and  _282
REMARK  115  A    between atoms: _281  and  _284
REMARK  116  A    between atoms: _284  and  _285
REMARK  117  A    between atoms: _290  and  _292
REMARK  118  A    between atoms: _292  and  _293
REMARK  119  A    between atoms: _292  and  _295
REMARK  120  A    between atoms: _295  and  _296
REMARK  121  A    between atoms: _296  and  _297
REMARK  122  A    between atoms: _297  and  _298
REMARK  123  A    between atoms: _308  and  _309
REMARK  124  A    between atoms: _314  and  _316
REMARK  125  A    between atoms: _316  and  _317
REMARK  126  A    between atoms: _316  and  _319
REMARK  127  A    between atoms: _319  and  _320
REMARK  128  A    between atoms: _323  and  _325
REMARK  129  A    between atoms: _325  and  _326
REMARK  130  A    between atoms: _325  and  _328
REMARK  131  A    between atoms: _328  and  _329
REMARK  132  A    between atoms: _332  and  _334
REMARK  133  A    between atoms: _334  and  _335
REMARK  134  A    between atoms: _334  and  _337
REMARK  135  A    between atoms: _337  and  _338
REMARK  136  A    between atoms: _341  and  _343
REMARK  137  A    between atoms: _343  and  _344
REMARK  138  A    between atoms: _343  and  _346
REMARK  139  A    between atoms: _346  and  _347
REMARK  140  A    between atoms: _350  and  _352
REMARK  141  A    between atoms: _352  and  _353
REMARK  142  A    between atoms: _352  and  _355
REMARK  143  A    between atoms: _355  and  _356
REMARK  144  A    between atoms: _359  and  _361
REMARK  145  A    between atoms: _361  and  _362
REMARK  146  A    between atoms: _364  and  _366
REMARK  147  A    between atoms: _366  and  _367
REMARK  148  A    between atoms: _370  and  _372
REMARK  149  A    between atoms: _372  and  _373
REMARK  150  A    between atoms: _372  and  _375
REMARK  151  A    between atoms: _375  and  _376
REMARK  152  A    between atoms: _379  and  _381
REMARK  153  A    between atoms: _381  and  _382
REMARK  154  A    between atoms: _381  and  _384
REMARK  155  A    between atoms: _384  and  _385
REMARK  156  A    between atoms: _388  and  _390
REMARK  157  A    between atoms: _390  and  _391
REMARK  158  A    between atoms: _390  and  _393
REMARK  159  A    between atoms: _393  and  _394
REMARK  160  A    between atoms: _397  and  _399
REMARK  161  A    between atoms: _399  and  _400
REMARK  162  A    between atoms: _399  and  _402
REMARK  163  A    between atoms: _405  and  _407
REMARK  164  A    between atoms: _407  and  _408
REMARK  165  A    between atoms: _407  and  _410
REMARK  166  A    between atoms: _410  and  _411
REMARK  167  A    between atoms: _411  and  _412
REMARK  168  A    between atoms: _412  and  _413
REMARK  169  A    between atoms: _413  and  _414
REMARK  170  A    between atoms: _418  and  _420
REMARK  171  A    between atoms: _420  and  _421
REMARK  172  A    between atoms: _420  and  _423
REMARK  173  A    between atoms: _423  and  _424
REMARK  174  A    between atoms: _424  and  _425
REMARK  175  A    between atoms: _427  and  _429
REMARK  176  A    between atoms: _429  and  _430
REMARK  177  A    between atoms: _429  and  _432
REMARK  178  A    between atoms: _432  and  _433
REMARK  179  A    between atoms: _436  and  _438
REMARK  180  A    between atoms: _438  and  _439
REMARK  181  A    between atoms: _441  and  _443
REMARK  182  A    between atoms: _443  and  _444
REMARK  183  A    between atoms: _446  and  _448
REMARK  184  A    between atoms: _448  and  _449
REMARK  185  A    between atoms: _448  and  _451
REMARK  186  A    between atoms: _454  and  _456
REMARK  187  A    between atoms: _456  and  _457
REMARK  188  A    between atoms: _459  and  _461
REMARK  189  A    between atoms: _461  and  _462
REMARK  190  A    between atoms: _464  and  _466
REMARK  191  A    between atoms: _466  and  _467
REMARK  192  A    between atoms: _466  and  _469
REMARK  193  A    between atoms: _469  and  _470
REMARK  194  A    between atoms: _476  and  _478
REMARK  195  A    between atoms: _478  and  _479
REMARK  196  A    between atoms: _478  and  _481
REMARK  197  A    between atoms: _481  and  _482
REMARK  198  A    between atoms: _485  and  _487
REMARK  199  A    between atoms: _487  and  _488
REMARK  200  A    between atoms: _487  and  _490
REMARK  201  A    between atoms: _493  and  _495
REMARK  202  A    between atoms: _495  and  _496
REMARK  203  A    between atoms: _495  and  _498
REMARK  204  A    between atoms: _498  and  _499
REMARK  205  A    between atoms: _503  and  _504
REMARK  206  A    between atoms: _509  and  _511
REMARK  207  A    between atoms: _511  and  _512
REMARK  208  A    between atoms: _511  and  _514
REMARK  209  A    between atoms: _514  and  _515
REMARK  210  A    between atoms: _519  and  _520
REMARK  211  A    between atoms: _525  and  _527
REMARK  212  A    between atoms: _527  and  _528
REMARK  213  A    between atoms: _527  and  _530
REMARK  214  A    between atoms: _533  and  _535
REMARK  215  A    between atoms: _535  and  _536
REMARK  216  A    between atoms: _535  and  _538
REMARK  217  A    between atoms: _538  and  _539
REMARK  218  A    between atoms: _544  and  _546
REMARK  219  A    between atoms: _546  and  _547
REMARK  220  A    between atoms: _546  and  _549
REMARK  221  A    between atoms: _549  and  _550
REMARK  222  A    between atoms: _553  and  _555
REMARK  223  A    between atoms: _555  and  _556
REMARK  224  A    between atoms: _555  and  _558
REMARK  225  A    between atoms: _558  and  _559
REMARK  226  A    between atoms: _562  and  _564
REMARK  227  A    between atoms: _564  and  _565
REMARK  228  A    between atoms: _567  and  _569
REMARK  229  A    between atoms: _569  and  _570
REMARK  230  A    between atoms: _569  and  _572
REMARK  231  A    between atoms: _572  and  _573
REMARK  232  A    between atoms: _573  and  _574
REMARK  233  A    between atoms: _574  and  _575
REMARK                            x       y       z     vdW  Elec       q    Type
REMARK                         _______ _______ _______ _____ _____    ______ ____
ROOT
ATOM      1  O   HOH     1       9.192  21.293  13.909  0.00  0.00    +0.000 OA
ENDROOT
TORSDOF 0
REMARK  Name = ../refined-set-2016/3cyx/3cyx_pocket.pdb
REMARK  233 active torsions:
REMARK  status: ('A' for Active; 'I' for Inactive)
REMARK    1  A    between atoms: _1  and  _3
REMARK    2  A    between atoms: _3  and  _4
REMARK    3  A    between atoms: _3  and  _6
REMARK    4  A    between atoms: _6  and  _7
REMARK    5  A    between atoms: _7  and  _8
REMARK    6  A    between atoms: _8  and  _9
REMARK    7  A    between atoms: _18  and  _20
REMARK    8  A    between atoms: _20  and  _21
REMARK    9  A    between atoms: _20  and  _23
REMARK   10  A    between atoms: _23  and  _24
REMARK   11  A    between atoms: _27  and  _29
REMARK   12  A    between atoms: _29  and  _30
REMARK   13  A    between atoms: _29  and  _32
REMARK   14  A    between atoms: _32  and  _33
REMARK   15  A    between atoms: _36  and  _38
REMARK   16  A    between atoms: _38  and  _39
REMARK   17  A    between atoms: _38  and  _41
REMARK   18  A    between atoms: _41  and  _42
REMARK   19  A    between atoms: _45  and  _47
REMARK   20  A    between atoms: _47  and  _48
REMARK   21  A    between atoms: _47  and  _50
REMARK   22  A    between atoms: _50  and  _51
REMARK   23  A    between atoms: _54  and  _56
REMARK   24  A    between atoms: _56  and  _57
REMARK   25  A    between atoms: _59  and  _61
REMARK   26  A    between atoms: _61  and  _62
REMARK   27  A    between atoms: _65  and  _67
REMARK   28  A    between atoms: _67  and  _68
REMARK   29  A    between atoms: _67  and  _70
REMARK   30  A    between atoms: _70  and  _71
REMARK   31  A    between atoms: _74  and  _76
REMARK   32  A    between atoms: _76  and  _77
REMARK   33  A    between atoms: _76  and  _79
REMARK   34  A    between atoms: _79  and  _80
REMARK   35  A    between atoms: _83  and  _85
REMARK   36  A    between atoms: _85  and  _86
REMARK   37  A    between atoms: _85  and  _88
REMARK   38  A    between atoms: _88  and  _89
REMARK   39  A    between atoms: _92  and  _94
REMARK   40  A    between atoms: _94  and  _95
REMARK   41  A    between atoms: _94  and  _97
REMARK   42  A    between atoms: _100  and  _102
REMARK   43  A    between atoms: _102  and  _103
REMARK   44  A    between atoms: _102  and  _105
REMARK   45  A    between atoms: _105  and  _106
REMARK   46  A    between atoms: _106  and  _107
REMARK   47  A    between atoms: _107  and  _108
REMARK   48  A    between atoms: _108  and  _109
REMARK   49  A    between atoms: _113  and  _115
REMARK   50  A    between atoms: _115  and  _116
REMARK   51  A    between atoms: _115  and  _118
REMARK   52  A    between atoms: _118  and  _119
REMARK   53  A    between atoms: _119  and  _120
REMARK   54  A    between atoms: _122  and  _124
REMARK   55  A    between atoms: _124  and  _125
REMARK   56  A    between atoms: _124  and  _127
REMARK   57  A    between atoms: _127  and  _128
REMARK   58  A    between atoms: _131  and  _133
REMARK   59  A    between atoms: _133  and  _134
REMARK   60  A    between atoms: _136  and  _138
REMARK   61  A    between atoms: _138  and  _139
REMARK   62  A    between atoms: _141  and  _143
REMARK   63  A    between atoms: _143  and  _144
REMARK   64  A    between atoms: _143  and  _146
REMARK   65  A    between atoms: _149  and  _151
REMARK   66  A    between atoms: _151  and  _152
REMARK   67  A    between atoms: _154  and  _156
REMARK   68  A    between atoms: _156  and  _157
REMARK   69  A    between atoms: _159  and  _161
REMARK   70  A    between atoms: _161  and  _162
REMARK   71  A    between atoms: _161  and  _164
REMARK   72  A    between atoms: _164  and  _165
REMARK   73  A    between atoms: _171  and  _173
REMARK   74  A    between atoms: _173  and  _174
REMARK   75  A    between atoms: _173  and  _176
REMARK   76  A    between atoms: _176  and  _177
REMARK   77  A    between atoms: _180  and  _182
REMARK   78  A    between atoms: _182  and  _183
REMARK   79  A    between atoms: _182  and  _185
REMARK   80  A    between atoms: _188  and  _190
REMARK   81  A    between atoms: _190  and  _191
REMARK   82  A    between atoms: _190  and  _193
REMARK   83  A    between atoms: _193  and  _194
REMARK   84  A    between atoms: _198  and  _199
REMARK   85  A    between atoms: _204  and  _206
REMARK   86  A    between atoms: _206  and  _207
REMARK   87  A    between atoms: _206  and  _209
REMARK   88  A    between atoms: _209  and  _210
REMARK   89  A    between atoms: _214  and  _215
REMARK   90  A    between atoms: _220  and  _222
REMARK   91  A    between atoms: _222  and  _223
REMARK   92  A    between atoms: _222  and  _225
REMARK   93  A    between atoms: _228  and  _230
REMARK   94  A    between atoms: _230  and  _231
REMARK   95  A    between atoms: _230  and  _233
REMARK   96  A    between atoms: _233  and  _234
REMARK   97  A    between atoms: _239  and  _241
REMARK   98  A    between atoms: _241  and  _242
REMARK   99  A    between atoms: _241  and  _244
REMARK  100  A    between atoms: _244  and  _245
REMARK  101  A    between atoms: _248  and  _250
REMARK  102  A    between atoms: _250  and  _251
REMARK  103  A    between atoms: _250  and  _253
REMARK  104  A    between atoms: _253  and  _254
REMARK  105  A    between atoms: _257  and  _259
REMARK  106  A    between atoms: _259  and  _260
REMARK  107  A    between atoms: _262  and  _264
REMARK  108  A    between atoms: _264  and  _265
REMARK  109  A    between atoms: _264  and  _267
REMARK  110  A    between atoms: _267  and  _268
REMARK  111  A    between atoms: _268  and  _269
REMARK  112  A    between atoms: _269  and  _270
REMARK  113  A    between atoms: _279  and  _281
REMARK  114  A    between atoms: _281  and  _282
REMARK  115  A    between atoms: _281  and  _284
REMARK  116  A    between atoms: _284  and  _285
REMARK  117  A    between atoms: _290  and  _292
REMARK  118  A    between atoms: _292  and  _293
REMARK  119  A    between atoms: _292  and  _295
REMARK  120  A    between atoms: _295  and  _296
REMARK  121  A    between atoms: _296  and  _297
REMARK  122  A    between atoms: _297  and  _298
REMARK  123  A    between atoms: _308  and  _309
REMARK  124  A    between atoms: _314  and  _316
REMARK  125  A    between atoms: _316  and  _317
REMARK  126  A    between atoms: _316  and  _319
REMARK  127  A    between atoms: _319  and  _320
REMARK  128  A    between atoms: _323  and  _325
REMARK  129  A    between atoms: _325  and  _326
REMARK  130  A    between atoms: _325  and  _328
REMARK  131  A    between atoms: _328  and  _329
REMARK  132  A    between atoms: _332  and  _334
REMARK  133  A    between atoms: _334  and  _335
REMARK  134  A    between atoms: _334  and  _337
REMARK  135  A    between atoms: _337  and  _338
REMARK  136  A    between atoms: _341  and  _343
REMARK  137  A    between atoms: _343  and  _344
REMARK  138  A    between atoms: _343  and  _346
REMARK  139  A    between atoms: _346  and  _347
REMARK  140  A    between atoms: _350  and  _352
REMARK  141  A    between atoms: _352  and  _353
REMARK  142  A    between atoms: _352  and  _355
REMARK  143  A    between atoms: _355  and  _356
REMARK  144  A    between atoms: _359  and  _361
REMARK  145  A    between atoms: _361  and  _362
REMARK  146  A    between atoms: _364  and  _366
REMARK  147  A    between atoms: _366  and  _367
REMARK  148  A    between atoms: _370  and  _372
REMARK  149  A    between atoms: _372  and  _373
REMARK  150  A    between atoms: _372  and  _375
REMARK  151  A    between atoms: _375  and  _376
REMARK  152  A    between atoms: _379  and  _381
REMARK  153  A    between atoms: _381  and  _382
REMARK  154  A    between atoms: _381  and  _384
REMARK  155  A    between atoms: _384  and  _385
REMARK  156  A    between atoms: _388  and  _390
REMARK  157  A    between atoms: _390  and  _391
REMARK  158  A    between atoms: _390  and  _393
REMARK  159  A    between atoms: _393  and  _394
REMARK  160  A    between atoms: _397  and  _399
REMARK  161  A    between atoms: _399  and  _400
REMARK  162  A    between atoms: _399  and  _402
REMARK  163  A    between atoms: _405  and  _407
REMARK  164  A    between atoms: _407  and  _408
REMARK  165  A    between atoms: _407  and  _410
REMARK  166  A    between atoms: _410  and  _411
REMARK  167  A    between atoms: _411  and  _412
REMARK  168  A    between atoms: _412  and  _413
REMARK  169  A    between atoms: _413  and  _414
REMARK  170  A    between atoms: _418  and  _420
REMARK  171  A    between atoms: _420  and  _421
REMARK  172  A    between atoms: _420  and  _423
REMARK  173  A    between atoms: _423  and  _424
REMARK  174  A    between atoms: _424  and  _425
REMARK  175  A    between atoms: _427  and  _429
REMARK  176  A    between atoms: _429  and  _430
REMARK  177  A    between atoms: _429  and  _432
REMARK  178  A    between atoms: _432  and  _433
REMARK  179  A    between atoms: _436  and  _438
REMARK  180  A    between atoms: _438  and  _439
REMARK  181  A    between atoms: _441  and  _443
REMARK  182  A    between atoms: _443  and  _444
REMARK  183  A    between atoms: _446  and  _448
REMARK  184  A    between atoms: _448  and  _449
REMARK  185  A    between atoms: _448  and  _451
REMARK  186  A    between atoms: _454  and  _456
REMARK  187  A    between atoms: _456  and  _457
REMARK  188  A    between atoms: _459  and  _461
REMARK  189  A    between atoms: _461  and  _462
REMARK  190  A    between atoms: _464  and  _466
REMARK  191  A    between atoms: _466  and  _467
REMARK  192  A    between atoms: _466  and  _469
REMARK  193  A    between atoms: _469  and  _470
REMARK  194  A    between atoms: _476  and  _478
REMARK  195  A    between atoms: _478  and  _479
REMARK  196  A    between atoms: _478  and  _481
REMARK  197  A    between atoms: _481  and  _482
REMARK  198  A    between atoms: _485  and  _487
REMARK  199  A    between atoms: _487  and  _488
REMARK  200  A    between atoms: _487  and  _490
REMARK  201  A    between atoms: _493  and  _495
REMARK  202  A    between atoms: _495  and  _496
REMARK  203  A    between atoms: _495  and  _498
REMARK  204  A    between atoms: _498  and  _499
REMARK  205  A    between atoms: _503  and  _504
REMARK  206  A    between atoms: _509  and  _511
REMARK  207  A    between atoms: _511  and  _512
REMARK  208  A    between atoms: _511  and  _514
REMARK  209  A    between atoms: _514  and  _515
REMARK  210  A    between atoms: _519  and  _520
REMARK  211  A    between atoms: _525  and  _527
REMARK  212  A    between atoms: _527  and  _528
REMARK  213  A    between atoms: _527  and  _530
REMARK  214  A    between atoms: _533  and  _535
REMARK  215  A    between atoms: _535  and  _536
REMARK  216  A    between atoms: _535  and  _538
REMARK  217  A    between atoms: _538  and  _539
REMARK  218  A    between atoms: _544  and  _546
REMARK  219  A    between atoms: _546  and  _547
REMARK  220  A    between atoms: _546  and  _549
REMARK  221  A    between atoms: _549  and  _550
REMARK  222  A    between atoms: _553  and  _555
REMARK  223  A    between atoms: _555  and  _556
REMARK  224  A    between atoms: _555  and  _558
REMARK  225  A    between atoms: _558  and  _559
REMARK  226  A    between atoms: _562  and  _564
REMARK  227  A    between atoms: _564  and  _565
REMARK  228  A    between atoms: _567  and  _569
REMARK  229  A    between atoms: _569  and  _570
REMARK  230  A    between atoms: _569  and  _572
REMARK  231  A    between atoms: _572  and  _573
REMARK  232  A    between atoms: _573  and  _574
REMARK  233  A    between atoms: _574  and  _575
REMARK                            x       y       z     vdW  Elec       q    Type
REMARK                         _______ _______ _______ _____ _____    ______ ____
ROOT
ATOM      1  O   HOH     1      29.793  24.562  18.359  0.00  0.00    +0.000 OA
ENDROOT
TORSDOF 0
REMARK  Name = ../refined-set-2016/3cyx/3cyx_pocket.pdb
REMARK  233 active torsions:
REMARK  status: ('A' for Active; 'I' for Inactive)
REMARK    1  A    between atoms: _1  and  _3
REMARK    2  A    between atoms: _3  and  _4
REMARK    3  A    between atoms: _3  and  _6
REMARK    4  A    between atoms: _6  and  _7
REMARK    5  A    between atoms: _7  and  _8
REMARK    6  A    between atoms: _8  and  _9
REMARK    7  A    between atoms: _18  and  _20
REMARK    8  A    between atoms: _20  and  _21
REMARK    9  A    between atoms: _20  and  _23
REMARK   10  A    between atoms: _23  and  _24
REMARK   11  A    between atoms: _27  and  _29
REMARK   12  A    between atoms: _29  and  _30
REMARK   13  A    between atoms: _29  and  _32
REMARK   14  A    between atoms: _32  and  _33
REMARK   15  A    between atoms: _36  and  _38
REMARK   16  A    between atoms: _38  and  _39
REMARK   17  A    between atoms: _38  and  _41
REMARK   18  A    between atoms: _41  and  _42
REMARK   19  A    between atoms: _45  and  _47
REMARK   20  A    between atoms: _47  and  _48
REMARK   21  A    between atoms: _47  and  _50
REMARK   22  A    between atoms: _50  and  _51
REMARK   23  A    between atoms: _54  and  _56
REMARK   24  A    between atoms: _56  and  _57
REMARK   25  A    between atoms: _59  and  _61
REMARK   26  A    between atoms: _61  and  _62
REMARK   27  A    between atoms: _65  and  _67
REMARK   28  A    between atoms: _67  and  _68
REMARK   29  A    between atoms: _67  and  _70
REMARK   30  A    between atoms: _70  and  _71
REMARK   31  A    between atoms: _74  and  _76
REMARK   32  A    between atoms: _76  and  _77
REMARK   33  A    between atoms: _76  and  _79
REMARK   34  A    between atoms: _79  and  _80
REMARK   35  A    between atoms: _83  and  _85
REMARK   36  A    between atoms: _85  and  _86
REMARK   37  A    between atoms: _85  and  _88
REMARK   38  A    between atoms: _88  and  _89
REMARK   39  A    between atoms: _92  and  _94
REMARK   40  A    between atoms: _94  and  _95
REMARK   41  A    between atoms: _94  and  _97
REMARK   42  A    between atoms: _100  and  _102
REMARK   43  A    between atoms: _102  and  _103
REMARK   44  A    between atoms: _102  and  _105
REMARK   45  A    between atoms: _105  and  _106
REMARK   46  A    between atoms: _106  and  _107
REMARK   47  A    between atoms: _107  and  _108
REMARK   48  A    between atoms: _108  and  _109
REMARK   49  A    between atoms: _113  and  _115
REMARK   50  A    between atoms: _115  and  _116
REMARK   51  A    between atoms: _115  and  _118
REMARK   52  A    between atoms: _118  and  _119
REMARK   53  A    between atoms: _119  and  _120
REMARK   54  A    between atoms: _122  and  _124
REMARK   55  A    between atoms: _124  and  _125
REMARK   56  A    between atoms: _124  and  _127
REMARK   57  A    between atoms: _127  and  _128
REMARK   58  A    between atoms: _131  and  _133
REMARK   59  A    between atoms: _133  and  _134
REMARK   60  A    between atoms: _136  and  _138
REMARK   61  A    between atoms: _138  and  _139
REMARK   62  A    between atoms: _141  and  _143
REMARK   63  A    between atoms: _143  and  _144
REMARK   64  A    between atoms: _143  and  _146
REMARK   65  A    between atoms: _149  and  _151
REMARK   66  A    between atoms: _151  and  _152
REMARK   67  A    between atoms: _154  and  _156
REMARK   68  A    between atoms: _156  and  _157
REMARK   69  A    between atoms: _159  and  _161
REMARK   70  A    between atoms: _161  and  _162
REMARK   71  A    between atoms: _161  and  _164
REMARK   72  A    between atoms: _164  and  _165
REMARK   73  A    between atoms: _171  and  _173
REMARK   74  A    between atoms: _173  and  _174
REMARK   75  A    between atoms: _173  and  _176
REMARK   76  A    between atoms: _176  and  _177
REMARK   77  A    between atoms: _180  and  _182
REMARK   78  A    between atoms: _182  and  _183
REMARK   79  A    between atoms: _182  and  _185
REMARK   80  A    between atoms: _188  and  _190
REMARK   81  A    between atoms: _190  and  _191
REMARK   82  A    between atoms: _190  and  _193
REMARK   83  A    between atoms: _193  and  _194
REMARK   84  A    between atoms: _198  and  _199
REMARK   85  A    between atoms: _204  and  _206
REMARK   86  A    between atoms: _206  and  _207
REMARK   87  A    between atoms: _206  and  _209
REMARK   88  A    between atoms: _209  and  _210
REMARK   89  A    between atoms: _214  and  _215
REMARK   90  A    between atoms: _220  and  _222
REMARK   91  A    between atoms: _222  and  _223
REMARK   92  A    between atoms: _222  and  _225
REMARK   93  A    between atoms: _228  and  _230
REMARK   94  A    between atoms: _230  and  _231
REMARK   95  A    between atoms: _230  and  _233
REMARK   96  A    between atoms: _233  and  _234
REMARK   97  A    between atoms: _239  and  _241
REMARK   98  A    between atoms: _241  and  _242
REMARK   99  A    between atoms: _241  and  _244
REMARK  100  A    between atoms: _244  and  _245
REMARK  101  A    between atoms: _248  and  _250
REMARK  102  A    between atoms: _250  and  _251
REMARK  103  A    between atoms: _250  and  _253
REMARK  104  A    between atoms: _253  and  _254
REMARK  105  A    between atoms: _257  and  _259
REMARK  106  A    between atoms: _259  and  _260
REMARK  107  A    between atoms: _262  and  _264
REMARK  108  A    between atoms: _264  and  _265
REMARK  109  A    between atoms: _264  and  _267
REMARK  110  A    between atoms: _267  and  _268
REMARK  111  A    between atoms: _268  and  _269
REMARK  112  A    between atoms: _269  and  _270
REMARK  113  A    between atoms: _279  and  _281
REMARK  114  A    between atoms: _281  and  _282
REMARK  115  A    between atoms: _281  and  _284
REMARK  116  A    between atoms: _284  and  _285
REMARK  117  A    between atoms: _290  and  _292
REMARK  118  A    between atoms: _292  and  _293
REMARK  119  A    between atoms: _292  and  _295
REMARK  120  A    between atoms: _295  and  _296
REMARK  121  A    between atoms: _296  and  _297
REMARK  122  A    between atoms: _297  and  _298
REMARK  123  A    between atoms: _308  and  _309
REMARK  124  A    between atoms: _314  and  _316
REMARK  125  A    between atoms: _316  and  _317
REMARK  126  A    between atoms: _316  and  _319
REMARK  127  A    between atoms: _319  and  _320
REMARK  128  A    between atoms: _323  and  _325
REMARK  129  A    between atoms: _325  and  _326
REMARK  130  A    between atoms: _325  and  _328
REMARK  131  A    between atoms: _328  and  _329
REMARK  132  A    between atoms: _332  and  _334
REMARK  133  A    between atoms: _334  and  _335
REMARK  134  A    between atoms: _334  and  _337
REMARK  135  A    between atoms: _337  and  _338
REMARK  136  A    between atoms: _341  and  _343
REMARK  137  A    between atoms: _343  and  _344
REMARK  138  A    between atoms: _343  and  _346
REMARK  139  A    between atoms: _346  and  _347
REMARK  140  A    between atoms: _350  and  _352
REMARK  141  A    between atoms: _352  and  _353
REMARK  142  A    between atoms: _352  and  _355
REMARK  143  A    between atoms: _355  and  _356
REMARK  144  A    between atoms: _359  and  _361
REMARK  145  A    between atoms: _361  and  _362
REMARK  146  A    between atoms: _364  and  _366
REMARK  147  A    between atoms: _366  and  _367
REMARK  148  A    between atoms: _370  and  _372
REMARK  149  A    between atoms: _372  and  _373
REMARK  150  A    between atoms: _372  and  _375
REMARK  151  A    between atoms: _375  and  _376
REMARK  152  A    between atoms: _379  and  _381
REMARK  153  A    between atoms: _381  and  _382
REMARK  154  A    between atoms: _381  and  _384
REMARK  155  A    between atoms: _384  and  _385
REMARK  156  A    between atoms: _388  and  _390
REMARK  157  A    between atoms: _390  and  _391
REMARK  158  A    between atoms: _390  and  _393
REMARK  159  A    between atoms: _393  and  _394
REMARK  160  A    between atoms: _397  and  _399
REMARK  161  A    between atoms: _399  and  _400
REMARK  162  A    between atoms: _399  and  _402
REMARK  163  A    between atoms: _405  and  _407
REMARK  164  A    between atoms: _407  and  _408
REMARK  165  A    between atoms: _407  and  _410
REMARK  166  A    between atoms: _410  and  _411
REMARK  167  A    between atoms: _411  and  _412
REMARK  168  A    between atoms: _412  and  _413
REMARK  169  A    between atoms: _413  and  _414
REMARK  170  A    between atoms: _418  and  _420
REMARK  171  A    between atoms: _420  and  _421
REMARK  172  A    between atoms: _420  and  _423
REMARK  173  A    between atoms: _423  and  _424
REMARK  174  A    between atoms: _424  and  _425
REMARK  175  A    between atoms: _427  and  _429
REMARK  176  A    between atoms: _429  and  _430
REMARK  177  A    between atoms: _429  and  _432
REMARK  178  A    between atoms: _432  and  _433
REMARK  179  A    between atoms: _436  and  _438
REMARK  180  A    between atoms: _438  and  _439
REMARK  181  A    between atoms: _441  and  _443
REMARK  182  A    between atoms: _443  and  _444
REMARK  183  A    between atoms: _446  and  _448
REMARK  184  A    between atoms: _448  and  _449
REMARK  185  A    between atoms: _448  and  _451
REMARK  186  A    between atoms: _454  and  _456
REMARK  187  A    between atoms: _456  and  _457
REMARK  188  A    between atoms: _459  and  _461
REMARK  189  A    between atoms: _461  and  _462
REMARK  190  A    between atoms: _464  and  _466
REMARK  191  A    between atoms: _466  and  _467
REMARK  192  A    between atoms: _466  and  _469
REMARK  193  A    between atoms: _469  and  _470
REMARK  194  A    between atoms: _476  and  _478
REMARK  195  A    between atoms: _478  and  _479
REMARK  196  A    between atoms: _478  and  _481
REMARK  197  A    between atoms: _481  and  _482
REMARK  198  A    between atoms: _485  and  _487
REMARK  199  A    between atoms: _487  and  _488
REMARK  200  A    between atoms: _487  and  _490
REMARK  201  A    between atoms: _493  and  _495
REMARK  202  A    between atoms: _495  and  _496
REMARK  203  A    between atoms: _495  and  _498
REMARK  204  A    between atoms: _498  and  _499
REMARK  205  A    between atoms: _503  and  _504
REMARK  206  A    between atoms: _509  and  _511
REMARK  207  A    between atoms: _511  and  _512
REMARK  208  A    between atoms: _511  and  _514
REMARK  209  A    between atoms: _514  and  _515
REMARK  210  A    between atoms: _519  and  _520
REMARK  211  A    between atoms: _525  and  _527
REMARK  212  A    between atoms: _527  and  _528
REMARK  213  A    between atoms: _527  and  _530
REMARK  214  A    between atoms: _533  and  _535
REMARK  215  A    between atoms: _535  and  _536
REMARK  216  A    between atoms: _535  and  _538
REMARK  217  A    between atoms: _538  and  _539
REMARK  218  A    between atoms: _544  and  _546
REMARK  219  A    between atoms: _546  and  _547
REMARK  220  A    between atoms: _546  and  _549
REMARK  221  A    between atoms: _549  and  _550
REMARK  222  A    between atoms: _553  and  _555
REMARK  223  A    between atoms: _555  and  _556
REMARK  224  A    between atoms: _555  and  _558
REMARK  225  A    between atoms: _558  and  _559
REMARK  226  A    between atoms: _562  and  _564
REMARK  227  A    between atoms: _564  and  _565
REMARK  228  A    between atoms: _567  and  _569
REMARK  229  A    between atoms: _569  and  _570
REMARK  230  A    between atoms: _569  and  _572
REMARK  231  A    between atoms: _572  and  _573
REMARK  232  A    between atoms: _573  and  _574
REMARK  233  A    between atoms: _574  and  _575
REMARK                            x       y       z     vdW  Elec       q    Type
REMARK                         _______ _______ _______ _____ _____    ______ ____
ROOT
ATOM      1  O   HOH     1      22.996  33.922  12.013  0.00  0.00    +0.000 OA
ENDROOT
TORSDOF 0
REMARK  Name = ../refined-set-2016/3cyx/3cyx_pocket.pdb
REMARK  233 active torsions:
REMARK  status: ('A' for Active; 'I' for Inactive)
REMARK    1  A    between atoms: _1  and  _3
REMARK    2  A    between atoms: _3  and  _4
REMARK    3  A    between atoms: _3  and  _6
REMARK    4  A    between atoms: _6  and  _7
REMARK    5  A    between atoms: _7  and  _8
REMARK    6  A    between atoms: _8  and  _9
REMARK    7  A    between atoms: _18  and  _20
REMARK    8  A    between atoms: _20  and  _21
REMARK    9  A    between atoms: _20  and  _23
REMARK   10  A    between atoms: _23  and  _24
REMARK   11  A    between atoms: _27  and  _29
REMARK   12  A    between atoms: _29  and  _30
REMARK   13  A    between atoms: _29  and  _32
REMARK   14  A    between atoms: _32  and  _33
REMARK   15  A    between atoms: _36  and  _38
REMARK   16  A    between atoms: _38  and  _39
REMARK   17  A    between atoms: _38  and  _41
REMARK   18  A    between atoms: _41  and  _42
REMARK   19  A    between atoms: _45  and  _47
REMARK   20  A    between atoms: _47  and  _48
REMARK   21  A    between atoms: _47  and  _50
REMARK   22  A    between atoms: _50  and  _51
REMARK   23  A    between atoms: _54  and  _56
REMARK   24  A    between atoms: _56  and  _57
REMARK   25  A    between atoms: _59  and  _61
REMARK   26  A    between atoms: _61  and  _62
REMARK   27  A    between atoms: _65  and  _67
REMARK   28  A    between atoms: _67  and  _68
REMARK   29  A    between atoms: _67  and  _70
REMARK   30  A    between atoms: _70  and  _71
REMARK   31  A    between atoms: _74  and  _76
REMARK   32  A    between atoms: _76  and  _77
REMARK   33  A    between atoms: _76  and  _79
REMARK   34  A    between atoms: _79  and  _80
REMARK   35  A    between atoms: _83  and  _85
REMARK   36  A    between atoms: _85  and  _86
REMARK   37  A    between atoms: _85  and  _88
REMARK   38  A    between atoms: _88  and  _89
REMARK   39  A    between atoms: _92  and  _94
REMARK   40  A    between atoms: _94  and  _95
REMARK   41  A    between atoms: _94  and  _97
REMARK   42  A    between atoms: _100  and  _102
REMARK   43  A    between atoms: _102  and  _103
REMARK   44  A    between atoms: _102  and  _105
REMARK   45  A    between atoms: _105  and  _106
REMARK   46  A    between atoms: _106  and  _107
REMARK   47  A    between atoms: _107  and  _108
REMARK   48  A    between atoms: _108  and  _109
REMARK   49  A    between atoms: _113  and  _115
REMARK   50  A    between atoms: _115  and  _116
REMARK   51  A    between atoms: _115  and  _118
REMARK   52  A    between atoms: _118  and  _119
REMARK   53  A    between atoms: _119  and  _120
REMARK   54  A    between atoms: _122  and  _124
REMARK   55  A    between atoms: _124  and  _125
REMARK   56  A    between atoms: _124  and  _127
REMARK   57  A    between atoms: _127  and  _128
REMARK   58  A    between atoms: _131  and  _133
REMARK   59  A    between atoms: _133  and  _134
REMARK   60  A    between atoms: _136  and  _138
REMARK   61  A    between atoms: _138  and  _139
REMARK   62  A    between atoms: _141  and  _143
REMARK   63  A    between atoms: _143  and  _144
REMARK   64  A    between atoms: _143  and  _146
REMARK   65  A    between atoms: _149  and  _151
REMARK   66  A    between atoms: _151  and  _152
REMARK   67  A    between atoms: _154  and  _156
REMARK   68  A    between atoms: _156  and  _157
REMARK   69  A    between atoms: _159  and  _161
REMARK   70  A    between atoms: _161  and  _162
REMARK   71  A    between atoms: _161  and  _164
REMARK   72  A    between atoms: _164  and  _165
REMARK   73  A    between atoms: _171  and  _173
REMARK   74  A    between atoms: _173  and  _174
REMARK   75  A    between atoms: _173  and  _176
REMARK   76  A    between atoms: _176  and  _177
REMARK   77  A    between atoms: _180  and  _182
REMARK   78  A    between atoms: _182  and  _183
REMARK   79  A    between atoms: _182  and  _185
REMARK   80  A    between atoms: _188  and  _190
REMARK   81  A    between atoms: _190  and  _191
REMARK   82  A    between atoms: _190  and  _193
REMARK   83  A    between atoms: _193  and  _194
REMARK   84  A    between atoms: _198  and  _199
REMARK   85  A    between atoms: _204  and  _206
REMARK   86  A    between atoms: _206  and  _207
REMARK   87  A    between atoms: _206  and  _209
REMARK   88  A    between atoms: _209  and  _210
REMARK   89  A    between atoms: _214  and  _215
REMARK   90  A    between atoms: _220  and  _222
REMARK   91  A    between atoms: _222  and  _223
REMARK   92  A    between atoms: _222  and  _225
REMARK   93  A    between atoms: _228  and  _230
REMARK   94  A    between atoms: _230  and  _231
REMARK   95  A    between atoms: _230  and  _233
REMARK   96  A    between atoms: _233  and  _234
REMARK   97  A    between atoms: _239  and  _241
REMARK   98  A    between atoms: _241  and  _242
REMARK   99  A    between atoms: _241  and  _244
REMARK  100  A    between atoms: _244  and  _245
REMARK  101  A    between atoms: _248  and  _250
REMARK  102  A    between atoms: _250  and  _251
REMARK  103  A    between atoms: _250  and  _253
REMARK  104  A    between atoms: _253  and  _254
REMARK  105  A    between atoms: _257  and  _259
REMARK  106  A    between atoms: _259  and  _260
REMARK  107  A    between atoms: _262  and  _264
REMARK  108  A    between atoms: _264  and  _265
REMARK  109  A    between atoms: _264  and  _267
REMARK  110  A    between atoms: _267  and  _268
REMARK  111  A    between atoms: _268  and  _269
REMARK  112  A    between atoms: _269  and  _270
REMARK  113  A    between atoms: _279  and  _281
REMARK  114  A    between atoms: _281  and  _282
REMARK  115  A    between atoms: _281  and  _284
REMARK  116  A    between atoms: _284  and  _285
REMARK  117  A    between atoms: _290  and  _292
REMARK  118  A    between atoms: _292  and  _293
REMARK  119  A    between atoms: _292  and  _295
REMARK  120  A    between atoms: _295  and  _296
REMARK  121  A    between atoms: _296  and  _297
REMARK  122  A    between atoms: _297  and  _298
REMARK  123  A    between atoms: _308  and  _309
REMARK  124  A    between atoms: _314  and  _316
REMARK  125  A    between atoms: _316  and  _317
REMARK  126  A    between atoms: _316  and  _319
REMARK  127  A    between atoms: _319  and  _320
REMARK  128  A    between atoms: _323  and  _325
REMARK  129  A    between atoms: _325  and  _326
REMARK  130  A    between atoms: _325  and  _328
REMARK  131  A    between atoms: _328  and  _329
REMARK  132  A    between atoms: _332  and  _334
REMARK  133  A    between atoms: _334  and  _335
REMARK  134  A    between atoms: _334  and  _337
REMARK  135  A    between atoms: _337  and  _338
REMARK  136  A    between atoms: _341  and  _343
REMARK  137  A    between atoms: _343  and  _344
REMARK  138  A    between atoms: _343  and  _346
REMARK  139  A    between atoms: _346  and  _347
REMARK  140  A    between atoms: _350  and  _352
REMARK  141  A    between atoms: _352  and  _353
REMARK  142  A    between atoms: _352  and  _355
REMARK  143  A    between atoms: _355  and  _356
REMARK  144  A    between atoms: _359  and  _361
REMARK  145  A    between atoms: _361  and  _362
REMARK  146  A    between atoms: _364  and  _366
REMARK  147  A    between atoms: _366  and  _367
REMARK  148  A    between atoms: _370  and  _372
REMARK  149  A    between atoms: _372  and  _373
REMARK  150  A    between atoms: _372  and  _375
REMARK  151  A    between atoms: _375  and  _376
REMARK  152  A    between atoms: _379  and  _381
REMARK  153  A    between atoms: _381  and  _382
REMARK  154  A    between atoms: _381  and  _384
REMARK  155  A    between atoms: _384  and  _385
REMARK  156  A    between atoms: _388  and  _390
REMARK  157  A    between atoms: _390  and  _391
REMARK  158  A    between atoms: _390  and  _393
REMARK  159  A    between atoms: _393  and  _394
REMARK  160  A    between atoms: _397  and  _399
REMARK  161  A    between atoms: _399  and  _400
REMARK  162  A    between atoms: _399  and  _402
REMARK  163  A    between atoms: _405  and  _407
REMARK  164  A    between atoms: _407  and  _408
REMARK  165  A    between atoms: _407  and  _410
REMARK  166  A    between atoms: _410  and  _411
REMARK  167  A    between atoms: _411  and  _412
REMARK  168  A    between atoms: _412  and  _413
REMARK  169  A    between atoms: _413  and  _414
REMARK  170  A    between atoms: _418  and  _420
REMARK  171  A    between atoms: _420  and  _421
REMARK  172  A    between atoms: _420  and  _423
REMARK  173  A    between atoms: _423  and  _424
REMARK  174  A    between atoms: _424  and  _425
REMARK  175  A    between atoms: _427  and  _429
REMARK  176  A    between atoms: _429  and  _430
REMARK  177  A    between atoms: _429  and  _432
REMARK  178  A    between atoms: _432  and  _433
REMARK  179  A    between atoms: _436  and  _438
REMARK  180  A    between atoms: _438  and  _439
REMARK  181  A    between atoms: _441  and  _443
REMARK  182  A    between atoms: _443  and  _444
REMARK  183  A    between atoms: _446  and  _448
REMARK  184  A    between atoms: _448  and  _449
REMARK  185  A    between atoms: _448  and  _451
REMARK  186  A    between atoms: _454  and  _456
REMARK  187  A    between atoms: _456  and  _457
REMARK  188  A    between atoms: _459  and  _461
REMARK  189  A    between atoms: _461  and  _462
REMARK  190  A    between atoms: _464  and  _466
REMARK  191  A    between atoms: _466  and  _467
REMARK  192  A    between atoms: _466  and  _469
REMARK  193  A    between atoms: _469  and  _470
REMARK  194  A    between atoms: _476  and  _478
REMARK  195  A    between atoms: _478  and  _479
REMARK  196  A    between atoms: _478  and  _481
REMARK  197  A    between atoms: _481  and  _482
REMARK  198  A    between atoms: _485  and  _487
REMARK  199  A    between atoms: _487  and  _488
REMARK  200  A    between atoms: _487  and  _490
REMARK  201  A    between atoms: _493  and  _495
REMARK  202  A    between atoms: _495  and  _496
REMARK  203  A    between atoms: _495  and  _498
REMARK  204  A    between atoms: _498  and  _499
REMARK  205  A    between atoms: _503  and  _504
REMARK  206  A    between atoms: _509  and  _511
REMARK  207  A    between atoms: _511  and  _512
REMARK  208  A    between atoms: _511  and  _514
REMARK  209  A    between atoms: _514  and  _515
REMARK  210  A    between atoms: _519  and  _520
REMARK  211  A    between atoms: _525  and  _527
REMARK  212  A    between atoms: _527  and  _528
REMARK  213  A    between atoms: _527  and  _530
REMARK  214  A    between atoms: _533  and  _535
REMARK  215  A    between atoms: _535  and  _536
REMARK  216  A    between atoms: _535  and  _538
REMARK  217  A    between atoms: _538  and  _539
REMARK  218  A    between atoms: _544  and  _546
REMARK  219  A    between atoms: _546  and  _547
REMARK  220  A    between atoms: _546  and  _549
REMARK  221  A    between atoms: _549  and  _550
REMARK  222  A    between atoms: _553  and  _555
REMARK  223  A    between atoms: _555  and  _556
REMARK  224  A    between atoms: _555  and  _558
REMARK  225  A    between atoms: _558  and  _559
REMARK  226  A    between atoms: _562  and  _564
REMARK  227  A    between atoms: _564  and  _565
REMARK  228  A    between atoms: _567  and  _569
REMARK  229  A    between atoms: _569  and  _570
REMARK  230  A    between atoms: _569  and  _572
REMARK  231  A    between atoms: _572  and  _573
REMARK  232  A    between atoms: _573  and  _574
REMARK  233  A    between atoms: _574  and  _575
REMARK                            x       y       z     vdW  Elec       q    Type
REMARK                         _______ _______ _______ _____ _____    ______ ____
ROOT
ATOM      1  O   HOH     1      12.651  22.873   5.860  0.00  0.00    +0.000 OA
ENDROOT
TORSDOF 0
REMARK  Name = ../refined-set-2016/3cyx/3cyx_pocket.pdb
REMARK  233 active torsions:
REMARK  status: ('A' for Active; 'I' for Inactive)
REMARK    1  A    between atoms: _1  and  _3
REMARK    2  A    between atoms: _3  and  _4
REMARK    3  A    between atoms: _3  and  _6
REMARK    4  A    between atoms: _6  and  _7
REMARK    5  A    between atoms: _7  and  _8
REMARK    6  A    between atoms: _8  and  _9
REMARK    7  A    between atoms: _18  and  _20
REMARK    8  A    between atoms: _20  and  _21
REMARK    9  A    between atoms: _20  and  _23
REMARK   10  A    between atoms: _23  and  _24
REMARK   11  A    between atoms: _27  and  _29
REMARK   12  A    between atoms: _29  and  _30
REMARK   13  A    between atoms: _29  and  _32
REMARK   14  A    between atoms: _32  and  _33
REMARK   15  A    between atoms: _36  and  _38
REMARK   16  A    between atoms: _38  and  _39
REMARK   17  A    between atoms: _38  and  _41
REMARK   18  A    between atoms: _41  and  _42
REMARK   19  A    between atoms: _45  and  _47
REMARK   20  A    between atoms: _47  and  _48
REMARK   21  A    between atoms: _47  and  _50
REMARK   22  A    between atoms: _50  and  _51
REMARK   23  A    between atoms: _54  and  _56
REMARK   24  A    between atoms: _56  and  _57
REMARK   25  A    between atoms: _59  and  _61
REMARK   26  A    between atoms: _61  and  _62
REMARK   27  A    between atoms: _65  and  _67
REMARK   28  A    between atoms: _67  and  _68
REMARK   29  A    between atoms: _67  and  _70
REMARK   30  A    between atoms: _70  and  _71
REMARK   31  A    between atoms: _74  and  _76
REMARK   32  A    between atoms: _76  and  _77
REMARK   33  A    between atoms: _76  and  _79
REMARK   34  A    between atoms: _79  and  _80
REMARK   35  A    between atoms: _83  and  _85
REMARK   36  A    between atoms: _85  and  _86
REMARK   37  A    between atoms: _85  and  _88
REMARK   38  A    between atoms: _88  and  _89
REMARK   39  A    between atoms: _92  and  _94
REMARK   40  A    between atoms: _94  and  _95
REMARK   41  A    between atoms: _94  and  _97
REMARK   42  A    between atoms: _100  and  _102
REMARK   43  A    between atoms: _102  and  _103
REMARK   44  A    between atoms: _102  and  _105
REMARK   45  A    between atoms: _105  and  _106
REMARK   46  A    between atoms: _106  and  _107
REMARK   47  A    between atoms: _107  and  _108
REMARK   48  A    between atoms: _108  and  _109
REMARK   49  A    between atoms: _113  and  _115
REMARK   50  A    between atoms: _115  and  _116
REMARK   51  A    between atoms: _115  and  _118
REMARK   52  A    between atoms: _118  and  _119
REMARK   53  A    between atoms: _119  and  _120
REMARK   54  A    between atoms: _122  and  _124
REMARK   55  A    between atoms: _124  and  _125
REMARK   56  A    between atoms: _124  and  _127
REMARK   57  A    between atoms: _127  and  _128
REMARK   58  A    between atoms: _131  and  _133
REMARK   59  A    between atoms: _133  and  _134
REMARK   60  A    between atoms: _136  and  _138
REMARK   61  A    between atoms: _138  and  _139
REMARK   62  A    between atoms: _141  and  _143
REMARK   63  A    between atoms: _143  and  _144
REMARK   64  A    between atoms: _143  and  _146
REMARK   65  A    between atoms: _149  and  _151
REMARK   66  A    between atoms: _151  and  _152
REMARK   67  A    between atoms: _154  and  _156
REMARK   68  A    between atoms: _156  and  _157
REMARK   69  A    between atoms: _159  and  _161
REMARK   70  A    between atoms: _161  and  _162
REMARK   71  A    between atoms: _161  and  _164
REMARK   72  A    between atoms: _164  and  _165
REMARK   73  A    between atoms: _171  and  _173
REMARK   74  A    between atoms: _173  and  _174
REMARK   75  A    between atoms: _173  and  _176
REMARK   76  A    between atoms: _176  and  _177
REMARK   77  A    between atoms: _180  and  _182
REMARK   78  A    between atoms: _182  and  _183
REMARK   79  A    between atoms: _182  and  _185
REMARK   80  A    between atoms: _188  and  _190
REMARK   81  A    between atoms: _190  and  _191
REMARK   82  A    between atoms: _190  and  _193
REMARK   83  A    between atoms: _193  and  _194
REMARK   84  A    between atoms: _198  and  _199
REMARK   85  A    between atoms: _204  and  _206
REMARK   86  A    between atoms: _206  and  _207
REMARK   87  A    between atoms: _206  and  _209
REMARK   88  A    between atoms: _209  and  _210
REMARK   89  A    between atoms: _214  and  _215
REMARK   90  A    between atoms: _220  and  _222
REMARK   91  A    between atoms: _222  and  _223
REMARK   92  A    between atoms: _222  and  _225
REMARK   93  A    between atoms: _228  and  _230
REMARK   94  A    between atoms: _230  and  _231
REMARK   95  A    between atoms: _230  and  _233
REMARK   96  A    between atoms: _233  and  _234
REMARK   97  A    between atoms: _239  and  _241
REMARK   98  A    between atoms: _241  and  _242
REMARK   99  A    between atoms: _241  and  _244
REMARK  100  A    between atoms: _244  and  _245
REMARK  101  A    between atoms: _248  and  _250
REMARK  102  A    between atoms: _250  and  _251
REMARK  103  A    between atoms: _250  and  _253
REMARK  104  A    between atoms: _253  and  _254
REMARK  105  A    between atoms: _257  and  _259
REMARK  106  A    between atoms: _259  and  _260
REMARK  107  A    between atoms: _262  and  _264
REMARK  108  A    between atoms: _264  and  _265
REMARK  109  A    between atoms: _264  and  _267
REMARK  110  A    between atoms: _267  and  _268
REMARK  111  A    between atoms: _268  and  _269
REMARK  112  A    between atoms: _269  and  _270
REMARK  113  A    between atoms: _279  and  _281
REMARK  114  A    between atoms: _281  and  _282
REMARK  115  A    between atoms: _281  and  _284
REMARK  116  A    between atoms: _284  and  _285
REMARK  117  A    between atoms: _290  and  _292
REMARK  118  A    between atoms: _292  and  _293
REMARK  119  A    between atoms: _292  and  _295
REMARK  120  A    between atoms: _295  and  _296
REMARK  121  A    between atoms: _296  and  _297
REMARK  122  A    between atoms: _297  and  _298
REMARK  123  A    between atoms: _308  and  _309
REMARK  124  A    between atoms: _314  and  _316
REMARK  125  A    between atoms: _316  and  _317
REMARK  126  A    between atoms: _316  and  _319
REMARK  127  A    between atoms: _319  and  _320
REMARK  128  A    between atoms: _323  and  _325
REMARK  129  A    between atoms: _325  and  _326
REMARK  130  A    between atoms: _325  and  _328
REMARK  131  A    between atoms: _328  and  _329
REMARK  132  A    between atoms: _332  and  _334
REMARK  133  A    between atoms: _334  and  _335
REMARK  134  A    between atoms: _334  and  _337
REMARK  135  A    between atoms: _337  and  _338
REMARK  136  A    between atoms: _341  and  _343
REMARK  137  A    between atoms: _343  and  _344
REMARK  138  A    between atoms: _343  and  _346
REMARK  139  A    between atoms: _346  and  _347
REMARK  140  A    between atoms: _350  and  _352
REMARK  141  A    between atoms: _352  and  _353
REMARK  142  A    between atoms: _352  and  _355
REMARK  143  A    between atoms: _355  and  _356
REMARK  144  A    between atoms: _359  and  _361
REMARK  145  A    between atoms: _361  and  _362
REMARK  146  A    between atoms: _364  and  _366
REMARK  147  A    between atoms: _366  and  _367
REMARK  148  A    between atoms: _370  and  _372
REMARK  149  A    between atoms: _372  and  _373
REMARK  150  A    between atoms: _372  and  _375
REMARK  151  A    between atoms: _375  and  _376
REMARK  152  A    between atoms: _379  and  _381
REMARK  153  A    between atoms: _381  and  _382
REMARK  154  A    between atoms: _381  and  _384
REMARK  155  A    between atoms: _384  and  _385
REMARK  156  A    between atoms: _388  and  _390
REMARK  157  A    between atoms: _390  and  _391
REMARK  158  A    between atoms: _390  and  _393
REMARK  159  A    between atoms: _393  and  _394
REMARK  160  A    between atoms: _397  and  _399
REMARK  161  A    between atoms: _399  and  _400
REMARK  162  A    between atoms: _399  and  _402
REMARK  163  A    between atoms: _405  and  _407
REMARK  164  A    between atoms: _407  and  _408
REMARK  165  A    between atoms: _407  and  _410
REMARK  166  A    between atoms: _410  and  _411
REMARK  167  A    between atoms: _411  and  _412
REMARK  168  A    between atoms: _412  and  _413
REMARK  169  A    between atoms: _413  and  _414
REMARK  170  A    between atoms: _418  and  _420
REMARK  171  A    between atoms: _420  and  _421
REMARK  172  A    between atoms: _420  and  _423
REMARK  173  A    between atoms: _423  and  _424
REMARK  174  A    between atoms: _424  and  _425
REMARK  175  A    between atoms: _427  and  _429
REMARK  176  A    between atoms: _429  and  _430
REMARK  177  A    between atoms: _429  and  _432
REMARK  178  A    between atoms: _432  and  _433
REMARK  179  A    between atoms: _436  and  _438
REMARK  180  A    between atoms: _438  and  _439
REMARK  181  A    between atoms: _441  and  _443
REMARK  182  A    between atoms: _443  and  _444
REMARK  183  A    between atoms: _446  and  _448
REMARK  184  A    between atoms: _448  and  _449
REMARK  185  A    between atoms: _448  and  _451
REMARK  186  A    between atoms: _454  and  _456
REMARK  187  A    between atoms: _456  and  _457
REMARK  188  A    between atoms: _459  and  _461
REMARK  189  A    between atoms: _461  and  _462
REMARK  190  A    between atoms: _464  and  _466
REMARK  191  A    between atoms: _466  and  _467
REMARK  192  A    between atoms: _466  and  _469
REMARK  193  A    between atoms: _469  and  _470
REMARK  194  A    between atoms: _476  and  _478
REMARK  195  A    between atoms: _478  and  _479
REMARK  196  A    between atoms: _478  and  _481
REMARK  197  A    between atoms: _481  and  _482
REMARK  198  A    between atoms: _485  and  _487
REMARK  199  A    between atoms: _487  and  _488
REMARK  200  A    between atoms: _487  and  _490
REMARK  201  A    between atoms: _493  and  _495
REMARK  202  A    between atoms: _495  and  _496
REMARK  203  A    between atoms: _495  and  _498
REMARK  204  A    between atoms: _498  and  _499
REMARK  205  A    between atoms: _503  and  _504
REMARK  206  A    between atoms: _509  and  _511
REMARK  207  A    between atoms: _511  and  _512
REMARK  208  A    between atoms: _511  and  _514
REMARK  209  A    between atoms: _514  and  _515
REMARK  210  A    between atoms: _519  and  _520
REMARK  211  A    between atoms: _525  and  _527
REMARK  212  A    between atoms: _527  and  _528
REMARK  213  A    between atoms: _527  and  _530
REMARK  214  A    between atoms: _533  and  _535
REMARK  215  A    between atoms: _535  and  _536
REMARK  216  A    between atoms: _535  and  _538
REMARK  217  A    between atoms: _538  and  _539
REMARK  218  A    between atoms: _544  and  _546
REMARK  219  A    between atoms: _546  and  _547
REMARK  220  A    between atoms: _546  and  _549
REMARK  221  A    between atoms: _549  and  _550
REMARK  222  A    between atoms: _553  and  _555
REMARK  223  A    between atoms: _555  and  _556
REMARK  224  A    between atoms: _555  and  _558
REMARK  225  A    between atoms: _558  and  _559
REMARK  226  A    between atoms: _562  and  _564
REMARK  227  A    between atoms: _564  and  _565
REMARK  228  A    between atoms: _567  and  _569
REMARK  229  A    between atoms: _569  and  _570
REMARK  230  A    between atoms: _569  and  _572
REMARK  231  A    between atoms: _572  and  _573
REMARK  232  A    between atoms: _573  and  _574
REMARK  233  A    between atoms: _574  and  _575
REMARK                            x       y       z     vdW  Elec       q    Type
REMARK                         _______ _______ _______ _____ _____    ______ ____
ROOT
ATOM      1  O   HOH     1      10.401  16.608  19.214  0.00  0.00    +0.000 OA
ENDROOT
TORSDOF 0
REMARK  Name = ../refined-set-2016/3cyx/3cyx_pocket.pdb
REMARK  233 active torsions:
REMARK  status: ('A' for Active; 'I' for Inactive)
REMARK    1  A    between atoms: _1  and  _3
REMARK    2  A    between atoms: _3  and  _4
REMARK    3  A    between atoms: _3  and  _6
REMARK    4  A    between atoms: _6  and  _7
REMARK    5  A    between atoms: _7  and  _8
REMARK    6  A    between atoms: _8  and  _9
REMARK    7  A    between atoms: _18  and  _20
REMARK    8  A    between atoms: _20  and  _21
REMARK    9  A    between atoms: _20  and  _23
REMARK   10  A    between atoms: _23  and  _24
REMARK   11  A    between atoms: _27  and  _29
REMARK   12  A    between atoms: _29  and  _30
REMARK   13  A    between atoms: _29  and  _32
REMARK   14  A    between atoms: _32  and  _33
REMARK   15  A    between atoms: _36  and  _38
REMARK   16  A    between atoms: _38  and  _39
REMARK   17  A    between atoms: _38  and  _41
REMARK   18  A    between atoms: _41  and  _42
REMARK   19  A    between atoms: _45  and  _47
REMARK   20  A    between atoms: _47  and  _48
REMARK   21  A    between atoms: _47  and  _50
REMARK   22  A    between atoms: _50  and  _51
REMARK   23  A    between atoms: _54  and  _56
REMARK   24  A    between atoms: _56  and  _57
REMARK   25  A    between atoms: _59  and  _61
REMARK   26  A    between atoms: _61  and  _62
REMARK   27  A    between atoms: _65  and  _67
REMARK   28  A    between atoms: _67  and  _68
REMARK   29  A    between atoms: _67  and  _70
REMARK   30  A    between atoms: _70  and  _71
REMARK   31  A    between atoms: _74  and  _76
REMARK   32  A    between atoms: _76  and  _77
REMARK   33  A    between atoms: _76  and  _79
REMARK   34  A    between atoms: _79  and  _80
REMARK   35  A    between atoms: _83  and  _85
REMARK   36  A    between atoms: _85  and  _86
REMARK   37  A    between atoms: _85  and  _88
REMARK   38  A    between atoms: _88  and  _89
REMARK   39  A    between atoms: _92  and  _94
REMARK   40  A    between atoms: _94  and  _95
REMARK   41  A    between atoms: _94  and  _97
REMARK   42  A    between atoms: _100  and  _102
REMARK   43  A    between atoms: _102  and  _103
REMARK   44  A    between atoms: _102  and  _105
REMARK   45  A    between atoms: _105  and  _106
REMARK   46  A    between atoms: _106  and  _107
REMARK   47  A    between atoms: _107  and  _108
REMARK   48  A    between atoms: _108  and  _109
REMARK   49  A    between atoms: _113  and  _115
REMARK   50  A    between atoms: _115  and  _116
REMARK   51  A    between atoms: _115  and  _118
REMARK   52  A    between atoms: _118  and  _119
REMARK   53  A    between atoms: _119  and  _120
REMARK   54  A    between atoms: _122  and  _124
REMARK   55  A    between atoms: _124  and  _125
REMARK   56  A    between atoms: _124  and  _127
REMARK   57  A    between atoms: _127  and  _128
REMARK   58  A    between atoms: _131  and  _133
REMARK   59  A    between atoms: _133  and  _134
REMARK   60  A    between atoms: _136  and  _138
REMARK   61  A    between atoms: _138  and  _139
REMARK   62  A    between atoms: _141  and  _143
REMARK   63  A    between atoms: _143  and  _144
REMARK   64  A    between atoms: _143  and  _146
REMARK   65  A    between atoms: _149  and  _151
REMARK   66  A    between atoms: _151  and  _152
REMARK   67  A    between atoms: _154  and  _156
REMARK   68  A    between atoms: _156  and  _157
REMARK   69  A    between atoms: _159  and  _161
REMARK   70  A    between atoms: _161  and  _162
REMARK   71  A    between atoms: _161  and  _164
REMARK   72  A    between atoms: _164  and  _165
REMARK   73  A    between atoms: _171  and  _173
REMARK   74  A    between atoms: _173  and  _174
REMARK   75  A    between atoms: _173  and  _176
REMARK   76  A    between atoms: _176  and  _177
REMARK   77  A    between atoms: _180  and  _182
REMARK   78  A    between atoms: _182  and  _183
REMARK   79  A    between atoms: _182  and  _185
REMARK   80  A    between atoms: _188  and  _190
REMARK   81  A    between atoms: _190  and  _191
REMARK   82  A    between atoms: _190  and  _193
REMARK   83  A    between atoms: _193  and  _194
REMARK   84  A    between atoms: _198  and  _199
REMARK   85  A    between atoms: _204  and  _206
REMARK   86  A    between atoms: _206  and  _207
REMARK   87  A    between atoms: _206  and  _209
REMARK   88  A    between atoms: _209  and  _210
REMARK   89  A    between atoms: _214  and  _215
REMARK   90  A    between atoms: _220  and  _222
REMARK   91  A    between atoms: _222  and  _223
REMARK   92  A    between atoms: _222  and  _225
REMARK   93  A    between atoms: _228  and  _230
REMARK   94  A    between atoms: _230  and  _231
REMARK   95  A    between atoms: _230  and  _233
REMARK   96  A    between atoms: _233  and  _234
REMARK   97  A    between atoms: _239  and  _241
REMARK   98  A    between atoms: _241  and  _242
REMARK   99  A    between atoms: _241  and  _244
REMARK  100  A    between atoms: _244  and  _245
REMARK  101  A    between atoms: _248  and  _250
REMARK  102  A    between atoms: _250  and  _251
REMARK  103  A    between atoms: _250  and  _253
REMARK  104  A    between atoms: _253  and  _254
REMARK  105  A    between atoms: _257  and  _259
REMARK  106  A    between atoms: _259  and  _260
REMARK  107  A    between atoms: _262  and  _264
REMARK  108  A    between atoms: _264  and  _265
REMARK  109  A    between atoms: _264  and  _267
REMARK  110  A    between atoms: _267  and  _268
REMARK  111  A    between atoms: _268  and  _269
REMARK  112  A    between atoms: _269  and  _270
REMARK  113  A    between atoms: _279  and  _281
REMARK  114  A    between atoms: _281  and  _282
REMARK  115  A    between atoms: _281  and  _284
REMARK  116  A    between atoms: _284  and  _285
REMARK  117  A    between atoms: _290  and  _292
REMARK  118  A    between atoms: _292  and  _293
REMARK  119  A    between atoms: _292  and  _295
REMARK  120  A    between atoms: _295  and  _296
REMARK  121  A    between atoms: _296  and  _297
REMARK  122  A    between atoms: _297  and  _298
REMARK  123  A    between atoms: _308  and  _309
REMARK  124  A    between atoms: _314  and  _316
REMARK  125  A    between atoms: _316  and  _317
REMARK  126  A    between atoms: _316  and  _319
REMARK  127  A    between atoms: _319  and  _320
REMARK  128  A    between atoms: _323  and  _325
REMARK  129  A    between atoms: _325  and  _326
REMARK  130  A    between atoms: _325  and  _328
REMARK  131  A    between atoms: _328  and  _329
REMARK  132  A    between atoms: _332  and  _334
REMARK  133  A    between atoms: _334  and  _335
REMARK  134  A    between atoms: _334  and  _337
REMARK  135  A    between atoms: _337  and  _338
REMARK  136  A    between atoms: _341  and  _343
REMARK  137  A    between atoms: _343  and  _344
REMARK  138  A    between atoms: _343  and  _346
REMARK  139  A    between atoms: _346  and  _347
REMARK  140  A    between atoms: _350  and  _352
REMARK  141  A    between atoms: _352  and  _353
REMARK  142  A    between atoms: _352  and  _355
REMARK  143  A    between atoms: _355  and  _356
REMARK  144  A    between atoms: _359  and  _361
REMARK  145  A    between atoms: _361  and  _362
REMARK  146  A    between atoms: _364  and  _366
REMARK  147  A    between atoms: _366  and  _367
REMARK  148  A    between atoms: _370  and  _372
REMARK  149  A    between atoms: _372  and  _373
REMARK  150  A    between atoms: _372  and  _375
REMARK  151  A    between atoms: _375  and  _376
REMARK  152  A    between atoms: _379  and  _381
REMARK  153  A    between atoms: _381  and  _382
REMARK  154  A    between atoms: _381  and  _384
REMARK  155  A    between atoms: _384  and  _385
REMARK  156  A    between atoms: _388  and  _390
REMARK  157  A    between atoms: _390  and  _391
REMARK  158  A    between atoms: _390  and  _393
REMARK  159  A    between atoms: _393  and  _394
REMARK  160  A    between atoms: _397  and  _399
REMARK  161  A    between atoms: _399  and  _400
REMARK  162  A    between atoms: _399  and  _402
REMARK  163  A    between atoms: _405  and  _407
REMARK  164  A    between atoms: _407  and  _408
REMARK  165  A    between atoms: _407  and  _410
REMARK  166  A    between atoms: _410  and  _411
REMARK  167  A    between atoms: _411  and  _412
REMARK  168  A    between atoms: _412  and  _413
REMARK  169  A    between atoms: _413  and  _414
REMARK  170  A    between atoms: _418  and  _420
REMARK  171  A    between atoms: _420  and  _421
REMARK  172  A    between atoms: _420  and  _423
REMARK  173  A    between atoms: _423  and  _424
REMARK  174  A    between atoms: _424  and  _425
REMARK  175  A    between atoms: _427  and  _429
REMARK  176  A    between atoms: _429  and  _430
REMARK  177  A    between atoms: _429  and  _432
REMARK  178  A    between atoms: _432  and  _433
REMARK  179  A    between atoms: _436  and  _438
REMARK  180  A    between atoms: _438  and  _439
REMARK  181  A    between atoms: _441  and  _443
REMARK  182  A    between atoms: _443  and  _444
REMARK  183  A    between atoms: _446  and  _448
REMARK  184  A    between atoms: _448  and  _449
REMARK  185  A    between atoms: _448  and  _451
REMARK  186  A    between atoms: _454  and  _456
REMARK  187  A    between atoms: _456  and  _457
REMARK  188  A    between atoms: _459  and  _461
REMARK  189  A    between atoms: _461  and  _462
REMARK  190  A    between atoms: _464  and  _466
REMARK  191  A    between atoms: _466  and  _467
REMARK  192  A    between atoms: _466  and  _469
REMARK  193  A    between atoms: _469  and  _470
REMARK  194  A    between atoms: _476  and  _478
REMARK  195  A    between atoms: _478  and  _479
REMARK  196  A    between atoms: _478  and  _481
REMARK  197  A    between atoms: _481  and  _482
REMARK  198  A    between atoms: _485  and  _487
REMARK  199  A    between atoms: _487  and  _488
REMARK  200  A    between atoms: _487  and  _490
REMARK  201  A    between atoms: _493  and  _495
REMARK  202  A    between atoms: _495  and  _496
REMARK  203  A    between atoms: _495  and  _498
REMARK  204  A    between atoms: _498  and  _499
REMARK  205  A    between atoms: _503  and  _504
REMARK  206  A    between atoms: _509  and  _511
REMARK  207  A    between atoms: _511  and  _512
REMARK  208  A    between atoms: _511  and  _514
REMARK  209  A    between atoms: _514  and  _515
REMARK  210  A    between atoms: _519  and  _520
REMARK  211  A    between atoms: _525  and  _527
REMARK  212  A    between atoms: _527  and  _528
REMARK  213  A    between atoms: _527  and  _530
REMARK  214  A    between atoms: _533  and  _535
REMARK  215  A    between atoms: _535  and  _536
REMARK  216  A    between atoms: _535  and  _538
REMARK  217  A    between atoms: _538  and  _539
REMARK  218  A    between atoms: _544  and  _546
REMARK  219  A    between atoms: _546  and  _547
REMARK  220  A    between atoms: _546  and  _549
REMARK  221  A    between atoms: _549  and  _550
REMARK  222  A    between atoms: _553  and  _555
REMARK  223  A    between atoms: _555  and  _556
REMARK  224  A    between atoms: _555  and  _558
REMARK  225  A    between atoms: _558  and  _559
REMARK  226  A    between atoms: _562  and  _564
REMARK  227  A    between atoms: _564  and  _565
REMARK  228  A    between atoms: _567  and  _569
REMARK  229  A    between atoms: _569  and  _570
REMARK  230  A    between atoms: _569  and  _572
REMARK  231  A    between atoms: _572  and  _573
REMARK  232  A    between atoms: _573  and  _574
REMARK  233  A    between atoms: _574  and  _575
REMARK                            x       y       z     vdW  Elec       q    Type
REMARK                         _______ _______ _______ _____ _____    ______ ____
ROOT
ATOM      1  O   HOH     1      24.659  33.347  20.566  0.00  0.00    +0.000 OA
ENDROOT
TORSDOF 0
REMARK  Name = ../refined-set-2016/3cyx/3cyx_pocket.pdb
REMARK  233 active torsions:
REMARK  status: ('A' for Active; 'I' for Inactive)
REMARK    1  A    between atoms: _1  and  _3
REMARK    2  A    between atoms: _3  and  _4
REMARK    3  A    between atoms: _3  and  _6
REMARK    4  A    between atoms: _6  and  _7
REMARK    5  A    between atoms: _7  and  _8
REMARK    6  A    between atoms: _8  and  _9
REMARK    7  A    between atoms: _18  and  _20
REMARK    8  A    between atoms: _20  and  _21
REMARK    9  A    between atoms: _20  and  _23
REMARK   10  A    between atoms: _23  and  _24
REMARK   11  A    between atoms: _27  and  _29
REMARK   12  A    between atoms: _29  and  _30
REMARK   13  A    between atoms: _29  and  _32
REMARK   14  A    between atoms: _32  and  _33
REMARK   15  A    between atoms: _36  and  _38
REMARK   16  A    between atoms: _38  and  _39
REMARK   17  A    between atoms: _38  and  _41
REMARK   18  A    between atoms: _41  and  _42
REMARK   19  A    between atoms: _45  and  _47
REMARK   20  A    between atoms: _47  and  _48
REMARK   21  A    between atoms: _47  and  _50
REMARK   22  A    between atoms: _50  and  _51
REMARK   23  A    between atoms: _54  and  _56
REMARK   24  A    between atoms: _56  and  _57
REMARK   25  A    between atoms: _59  and  _61
REMARK   26  A    between atoms: _61  and  _62
REMARK   27  A    between atoms: _65  and  _67
REMARK   28  A    between atoms: _67  and  _68
REMARK   29  A    between atoms: _67  and  _70
REMARK   30  A    between atoms: _70  and  _71
REMARK   31  A    between atoms: _74  and  _76
REMARK   32  A    between atoms: _76  and  _77
REMARK   33  A    between atoms: _76  and  _79
REMARK   34  A    between atoms: _79  and  _80
REMARK   35  A    between atoms: _83  and  _85
REMARK   36  A    between atoms: _85  and  _86
REMARK   37  A    between atoms: _85  and  _88
REMARK   38  A    between atoms: _88  and  _89
REMARK   39  A    between atoms: _92  and  _94
REMARK   40  A    between atoms: _94  and  _95
REMARK   41  A    between atoms: _94  and  _97
REMARK   42  A    between atoms: _100  and  _102
REMARK   43  A    between atoms: _102  and  _103
REMARK   44  A    between atoms: _102  and  _105
REMARK   45  A    between atoms: _105  and  _106
REMARK   46  A    between atoms: _106  and  _107
REMARK   47  A    between atoms: _107  and  _108
REMARK   48  A    between atoms: _108  and  _109
REMARK   49  A    between atoms: _113  and  _115
REMARK   50  A    between atoms: _115  and  _116
REMARK   51  A    between atoms: _115  and  _118
REMARK   52  A    between atoms: _118  and  _119
REMARK   53  A    between atoms: _119  and  _120
REMARK   54  A    between atoms: _122  and  _124
REMARK   55  A    between atoms: _124  and  _125
REMARK   56  A    between atoms: _124  and  _127
REMARK   57  A    between atoms: _127  and  _128
REMARK   58  A    between atoms: _131  and  _133
REMARK   59  A    between atoms: _133  and  _134
REMARK   60  A    between atoms: _136  and  _138
REMARK   61  A    between atoms: _138  and  _139
REMARK   62  A    between atoms: _141  and  _143
REMARK   63  A    between atoms: _143  and  _144
REMARK   64  A    between atoms: _143  and  _146
REMARK   65  A    between atoms: _149  and  _151
REMARK   66  A    between atoms: _151  and  _152
REMARK   67  A    between atoms: _154  and  _156
REMARK   68  A    between atoms: _156  and  _157
REMARK   69  A    between atoms: _159  and  _161
REMARK   70  A    between atoms: _161  and  _162
REMARK   71  A    between atoms: _161  and  _164
REMARK   72  A    between atoms: _164  and  _165
REMARK   73  A    between atoms: _171  and  _173
REMARK   74  A    between atoms: _173  and  _174
REMARK   75  A    between atoms: _173  and  _176
REMARK   76  A    between atoms: _176  and  _177
REMARK   77  A    between atoms: _180  and  _182
REMARK   78  A    between atoms: _182  and  _183
REMARK   79  A    between atoms: _182  and  _185
REMARK   80  A    between atoms: _188  and  _190
REMARK   81  A    between atoms: _190  and  _191
REMARK   82  A    between atoms: _190  and  _193
REMARK   83  A    between atoms: _193  and  _194
REMARK   84  A    between atoms: _198  and  _199
REMARK   85  A    between atoms: _204  and  _206
REMARK   86  A    between atoms: _206  and  _207
REMARK   87  A    between atoms: _206  and  _209
REMARK   88  A    between atoms: _209  and  _210
REMARK   89  A    between atoms: _214  and  _215
REMARK   90  A    between atoms: _220  and  _222
REMARK   91  A    between atoms: _222  and  _223
REMARK   92  A    between atoms: _222  and  _225
REMARK   93  A    between atoms: _228  and  _230
REMARK   94  A    between atoms: _230  and  _231
REMARK   95  A    between atoms: _230  and  _233
REMARK   96  A    between atoms: _233  and  _234
REMARK   97  A    between atoms: _239  and  _241
REMARK   98  A    between atoms: _241  and  _242
REMARK   99  A    between atoms: _241  and  _244
REMARK  100  A    between atoms: _244  and  _245
REMARK  101  A    between atoms: _248  and  _250
REMARK  102  A    between atoms: _250  and  _251
REMARK  103  A    between atoms: _250  and  _253
REMARK  104  A    between atoms: _253  and  _254
REMARK  105  A    between atoms: _257  and  _259
REMARK  106  A    between atoms: _259  and  _260
REMARK  107  A    between atoms: _262  and  _264
REMARK  108  A    between atoms: _264  and  _265
REMARK  109  A    between atoms: _264  and  _267
REMARK  110  A    between atoms: _267  and  _268
REMARK  111  A    between atoms: _268  and  _269
REMARK  112  A    between atoms: _269  and  _270
REMARK  113  A    between atoms: _279  and  _281
REMARK  114  A    between atoms: _281  and  _282
REMARK  115  A    between atoms: _281  and  _284
REMARK  116  A    between atoms: _284  and  _285
REMARK  117  A    between atoms: _290  and  _292
REMARK  118  A    between atoms: _292  and  _293
REMARK  119  A    between atoms: _292  and  _295
REMARK  120  A    between atoms: _295  and  _296
REMARK  121  A    between atoms: _296  and  _297
REMARK  122  A    between atoms: _297  and  _298
REMARK  123  A    between atoms: _308  and  _309
REMARK  124  A    between atoms: _314  and  _316
REMARK  125  A    between atoms: _316  and  _317
REMARK  126  A    between atoms: _316  and  _319
REMARK  127  A    between atoms: _319  and  _320
REMARK  128  A    between atoms: _323  and  _325
REMARK  129  A    between atoms: _325  and  _326
REMARK  130  A    between atoms: _325  and  _328
REMARK  131  A    between atoms: _328  and  _329
REMARK  132  A    between atoms: _332  and  _334
REMARK  133  A    between atoms: _334  and  _335
REMARK  134  A    between atoms: _334  and  _337
REMARK  135  A    between atoms: _337  and  _338
REMARK  136  A    between atoms: _341  and  _343
REMARK  137  A    between atoms: _343  and  _344
REMARK  138  A    between atoms: _343  and  _346
REMARK  139  A    between atoms: _346  and  _347
REMARK  140  A    between atoms: _350  and  _352
REMARK  141  A    between atoms: _352  and  _353
REMARK  142  A    between atoms: _352  and  _355
REMARK  143  A    between atoms: _355  and  _356
REMARK  144  A    between atoms: _359  and  _361
REMARK  145  A    between atoms: _361  and  _362
REMARK  146  A    between atoms: _364  and  _366
REMARK  147  A    between atoms: _366  and  _367
REMARK  148  A    between atoms: _370  and  _372
REMARK  149  A    between atoms: _372  and  _373
REMARK  150  A    between atoms: _372  and  _375
REMARK  151  A    between atoms: _375  and  _376
REMARK  152  A    between atoms: _379  and  _381
REMARK  153  A    between atoms: _381  and  _382
REMARK  154  A    between atoms: _381  and  _384
REMARK  155  A    between atoms: _384  and  _385
REMARK  156  A    between atoms: _388  and  _390
REMARK  157  A    between atoms: _390  and  _391
REMARK  158  A    between atoms: _390  and  _393
REMARK  159  A    between atoms: _393  and  _394
REMARK  160  A    between atoms: _397  and  _399
REMARK  161  A    between atoms: _399  and  _400
REMARK  162  A    between atoms: _399  and  _402
REMARK  163  A    between atoms: _405  and  _407
REMARK  164  A    between atoms: _407  and  _408
REMARK  165  A    between atoms: _407  and  _410
REMARK  166  A    between atoms: _410  and  _411
REMARK  167  A    between atoms: _411  and  _412
REMARK  168  A    between atoms: _412  and  _413
REMARK  169  A    between atoms: _413  and  _414
REMARK  170  A    between atoms: _418  and  _420
REMARK  171  A    between atoms: _420  and  _421
REMARK  172  A    between atoms: _420  and  _423
REMARK  173  A    between atoms: _423  and  _424
REMARK  174  A    between atoms: _424  and  _425
REMARK  175  A    between atoms: _427  and  _429
REMARK  176  A    between atoms: _429  and  _430
REMARK  177  A    between atoms: _429  and  _432
REMARK  178  A    between atoms: _432  and  _433
REMARK  179  A    between atoms: _436  and  _438
REMARK  180  A    between atoms: _438  and  _439
REMARK  181  A    between atoms: _441  and  _443
REMARK  182  A    between atoms: _443  and  _444
REMARK  183  A    between atoms: _446  and  _448
REMARK  184  A    between atoms: _448  and  _449
REMARK  185  A    between atoms: _448  and  _451
REMARK  186  A    between atoms: _454  and  _456
REMARK  187  A    between atoms: _456  and  _457
REMARK  188  A    between atoms: _459  and  _461
REMARK  189  A    between atoms: _461  and  _462
REMARK  190  A    between atoms: _464  and  _466
REMARK  191  A    between atoms: _466  and  _467
REMARK  192  A    between atoms: _466  and  _469
REMARK  193  A    between atoms: _469  and  _470
REMARK  194  A    between atoms: _476  and  _478
REMARK  195  A    between atoms: _478  and  _479
REMARK  196  A    between atoms: _478  and  _481
REMARK  197  A    between atoms: _481  and  _482
REMARK  198  A    between atoms: _485  and  _487
REMARK  199  A    between atoms: _487  and  _488
REMARK  200  A    between atoms: _487  and  _490
REMARK  201  A    between atoms: _493  and  _495
REMARK  202  A    between atoms: _495  and  _496
REMARK  203  A    between atoms: _495  and  _498
REMARK  204  A    between atoms: _498  and  _499
REMARK  205  A    between atoms: _503  and  _504
REMARK  206  A    between atoms: _509  and  _511
REMARK  207  A    between atoms: _511  and  _512
REMARK  208  A    between atoms: _511  and  _514
REMARK  209  A    between atoms: _514  and  _515
REMARK  210  A    between atoms: _519  and  _520
REMARK  211  A    between atoms: _525  and  _527
REMARK  212  A    between atoms: _527  and  _528
REMARK  213  A    between atoms: _527  and  _530
REMARK  214  A    between atoms: _533  and  _535
REMARK  215  A    between atoms: _535  and  _536
REMARK  216  A    between atoms: _535  and  _538
REMARK  217  A    between atoms: _538  and  _539
REMARK  218  A    between atoms: _544  and  _546
REMARK  219  A    between atoms: _546  and  _547
REMARK  220  A    between atoms: _546  and  _549
REMARK  221  A    between atoms: _549  and  _550
REMARK  222  A    between atoms: _553  and  _555
REMARK  223  A    between atoms: _555  and  _556
REMARK  224  A    between atoms: _555  and  _558
REMARK  225  A    between atoms: _558  and  _559
REMARK  226  A    between atoms: _562  and  _564
REMARK  227  A    between atoms: _564  and  _565
REMARK  228  A    between atoms: _567  and  _569
REMARK  229  A    between atoms: _569  and  _570
REMARK  230  A    between atoms: _569  and  _572
REMARK  231  A    between atoms: _572  and  _573
REMARK  232  A    between atoms: _573  and  _574
REMARK  233  A    between atoms: _574  and  _575
REMARK                            x       y       z     vdW  Elec       q    Type
REMARK                         _______ _______ _______ _____ _____    ______ ____
ROOT
ATOM      1  O   HOH     1       9.074  20.579   7.423  0.00  0.00    +0.000 OA
ENDROOT
TORSDOF 0
REMARK  Name = ../refined-set-2016/3cyx/3cyx_pocket.pdb
REMARK  233 active torsions:
REMARK  status: ('A' for Active; 'I' for Inactive)
REMARK    1  A    between atoms: _1  and  _3
REMARK    2  A    between atoms: _3  and  _4
REMARK    3  A    between atoms: _3  and  _6
REMARK    4  A    between atoms: _6  and  _7
REMARK    5  A    between atoms: _7  and  _8
REMARK    6  A    between atoms: _8  and  _9
REMARK    7  A    between atoms: _18  and  _20
REMARK    8  A    between atoms: _20  and  _21
REMARK    9  A    between atoms: _20  and  _23
REMARK   10  A    between atoms: _23  and  _24
REMARK   11  A    between atoms: _27  and  _29
REMARK   12  A    between atoms: _29  and  _30
REMARK   13  A    between atoms: _29  and  _32
REMARK   14  A    between atoms: _32  and  _33
REMARK   15  A    between atoms: _36  and  _38
REMARK   16  A    between atoms: _38  and  _39
REMARK   17  A    between atoms: _38  and  _41
REMARK   18  A    between atoms: _41  and  _42
REMARK   19  A    between atoms: _45  and  _47
REMARK   20  A    between atoms: _47  and  _48
REMARK   21  A    between atoms: _47  and  _50
REMARK   22  A    between atoms: _50  and  _51
REMARK   23  A    between atoms: _54  and  _56
REMARK   24  A    between atoms: _56  and  _57
REMARK   25  A    between atoms: _59  and  _61
REMARK   26  A    between atoms: _61  and  _62
REMARK   27  A    between atoms: _65  and  _67
REMARK   28  A    between atoms: _67  and  _68
REMARK   29  A    between atoms: _67  and  _70
REMARK   30  A    between atoms: _70  and  _71
REMARK   31  A    between atoms: _74  and  _76
REMARK   32  A    between atoms: _76  and  _77
REMARK   33  A    between atoms: _76  and  _79
REMARK   34  A    between atoms: _79  and  _80
REMARK   35  A    between atoms: _83  and  _85
REMARK   36  A    between atoms: _85  and  _86
REMARK   37  A    between atoms: _85  and  _88
REMARK   38  A    between atoms: _88  and  _89
REMARK   39  A    between atoms: _92  and  _94
REMARK   40  A    between atoms: _94  and  _95
REMARK   41  A    between atoms: _94  and  _97
REMARK   42  A    between atoms: _100  and  _102
REMARK   43  A    between atoms: _102  and  _103
REMARK   44  A    between atoms: _102  and  _105
REMARK   45  A    between atoms: _105  and  _106
REMARK   46  A    between atoms: _106  and  _107
REMARK   47  A    between atoms: _107  and  _108
REMARK   48  A    between atoms: _108  and  _109
REMARK   49  A    between atoms: _113  and  _115
REMARK   50  A    between atoms: _115  and  _116
REMARK   51  A    between atoms: _115  and  _118
REMARK   52  A    between atoms: _118  and  _119
REMARK   53  A    between atoms: _119  and  _120
REMARK   54  A    between atoms: _122  and  _124
REMARK   55  A    between atoms: _124  and  _125
REMARK   56  A    between atoms: _124  and  _127
REMARK   57  A    between atoms: _127  and  _128
REMARK   58  A    between atoms: _131  and  _133
REMARK   59  A    between atoms: _133  and  _134
REMARK   60  A    between atoms: _136  and  _138
REMARK   61  A    between atoms: _138  and  _139
REMARK   62  A    between atoms: _141  and  _143
REMARK   63  A    between atoms: _143  and  _144
REMARK   64  A    between atoms: _143  and  _146
REMARK   65  A    between atoms: _149  and  _151
REMARK   66  A    between atoms: _151  and  _152
REMARK   67  A    between atoms: _154  and  _156
REMARK   68  A    between atoms: _156  and  _157
REMARK   69  A    between atoms: _159  and  _161
REMARK   70  A    between atoms: _161  and  _162
REMARK   71  A    between atoms: _161  and  _164
REMARK   72  A    between atoms: _164  and  _165
REMARK   73  A    between atoms: _171  and  _173
REMARK   74  A    between atoms: _173  and  _174
REMARK   75  A    between atoms: _173  and  _176
REMARK   76  A    between atoms: _176  and  _177
REMARK   77  A    between atoms: _180  and  _182
REMARK   78  A    between atoms: _182  and  _183
REMARK   79  A    between atoms: _182  and  _185
REMARK   80  A    between atoms: _188  and  _190
REMARK   81  A    between atoms: _190  and  _191
REMARK   82  A    between atoms: _190  and  _193
REMARK   83  A    between atoms: _193  and  _194
REMARK   84  A    between atoms: _198  and  _199
REMARK   85  A    between atoms: _204  and  _206
REMARK   86  A    between atoms: _206  and  _207
REMARK   87  A    between atoms: _206  and  _209
REMARK   88  A    between atoms: _209  and  _210
REMARK   89  A    between atoms: _214  and  _215
REMARK   90  A    between atoms: _220  and  _222
REMARK   91  A    between atoms: _222  and  _223
REMARK   92  A    between atoms: _222  and  _225
REMARK   93  A    between atoms: _228  and  _230
REMARK   94  A    between atoms: _230  and  _231
REMARK   95  A    between atoms: _230  and  _233
REMARK   96  A    between atoms: _233  and  _234
REMARK   97  A    between atoms: _239  and  _241
REMARK   98  A    between atoms: _241  and  _242
REMARK   99  A    between atoms: _241  and  _244
REMARK  100  A    between atoms: _244  and  _245
REMARK  101  A    between atoms: _248  and  _250
REMARK  102  A    between atoms: _250  and  _251
REMARK  103  A    between atoms: _250  and  _253
REMARK  104  A    between atoms: _253  and  _254
REMARK  105  A    between atoms: _257  and  _259
REMARK  106  A    between atoms: _259  and  _260
REMARK  107  A    between atoms: _262  and  _264
REMARK  108  A    between atoms: _264  and  _265
REMARK  109  A    between atoms: _264  and  _267
REMARK  110  A    between atoms: _267  and  _268
REMARK  111  A    between atoms: _268  and  _269
REMARK  112  A    between atoms: _269  and  _270
REMARK  113  A    between atoms: _279  and  _281
REMARK  114  A    between atoms: _281  and  _282
REMARK  115  A    between atoms: _281  and  _284
REMARK  116  A    between atoms: _284  and  _285
REMARK  117  A    between atoms: _290  and  _292
REMARK  118  A    between atoms: _292  and  _293
REMARK  119  A    between atoms: _292  and  _295
REMARK  120  A    between atoms: _295  and  _296
REMARK  121  A    between atoms: _296  and  _297
REMARK  122  A    between atoms: _297  and  _298
REMARK  123  A    between atoms: _308  and  _309
REMARK  124  A    between atoms: _314  and  _316
REMARK  125  A    between atoms: _316  and  _317
REMARK  126  A    between atoms: _316  and  _319
REMARK  127  A    between atoms: _319  and  _320
REMARK  128  A    between atoms: _323  and  _325
REMARK  129  A    between atoms: _325  and  _326
REMARK  130  A    between atoms: _325  and  _328
REMARK  131  A    between atoms: _328  and  _329
REMARK  132  A    between atoms: _332  and  _334
REMARK  133  A    between atoms: _334  and  _335
REMARK  134  A    between atoms: _334  and  _337
REMARK  135  A    between atoms: _337  and  _338
REMARK  136  A    between atoms: _341  and  _343
REMARK  137  A    between atoms: _343  and  _344
REMARK  138  A    between atoms: _343  and  _346
REMARK  139  A    between atoms: _346  and  _347
REMARK  140  A    between atoms: _350  and  _352
REMARK  141  A    between atoms: _352  and  _353
REMARK  142  A    between atoms: _352  and  _355
REMARK  143  A    between atoms: _355  and  _356
REMARK  144  A    between atoms: _359  and  _361
REMARK  145  A    between atoms: _361  and  _362
REMARK  146  A    between atoms: _364  and  _366
REMARK  147  A    between atoms: _366  and  _367
REMARK  148  A    between atoms: _370  and  _372
REMARK  149  A    between atoms: _372  and  _373
REMARK  150  A    between atoms: _372  and  _375
REMARK  151  A    between atoms: _375  and  _376
REMARK  152  A    between atoms: _379  and  _381
REMARK  153  A    between atoms: _381  and  _382
REMARK  154  A    between atoms: _381  and  _384
REMARK  155  A    between atoms: _384  and  _385
REMARK  156  A    between atoms: _388  and  _390
REMARK  157  A    between atoms: _390  and  _391
REMARK  158  A    between atoms: _390  and  _393
REMARK  159  A    between atoms: _393  and  _394
REMARK  160  A    between atoms: _397  and  _399
REMARK  161  A    between atoms: _399  and  _400
REMARK  162  A    between atoms: _399  and  _402
REMARK  163  A    between atoms: _405  and  _407
REMARK  164  A    between atoms: _407  and  _408
REMARK  165  A    between atoms: _407  and  _410
REMARK  166  A    between atoms: _410  and  _411
REMARK  167  A    between atoms: _411  and  _412
REMARK  168  A    between atoms: _412  and  _413
REMARK  169  A    between atoms: _413  and  _414
REMARK  170  A    between atoms: _418  and  _420
REMARK  171  A    between atoms: _420  and  _421
REMARK  172  A    between atoms: _420  and  _423
REMARK  173  A    between atoms: _423  and  _424
REMARK  174  A    between atoms: _424  and  _425
REMARK  175  A    between atoms: _427  and  _429
REMARK  176  A    between atoms: _429  and  _430
REMARK  177  A    between atoms: _429  and  _432
REMARK  178  A    between atoms: _432  and  _433
REMARK  179  A    between atoms: _436  and  _438
REMARK  180  A    between atoms: _438  and  _439
REMARK  181  A    between atoms: _441  and  _443
REMARK  182  A    between atoms: _443  and  _444
REMARK  183  A    between atoms: _446  and  _448
REMARK  184  A    between atoms: _448  and  _449
REMARK  185  A    between atoms: _448  and  _451
REMARK  186  A    between atoms: _454  and  _456
REMARK  187  A    between atoms: _456  and  _457
REMARK  188  A    between atoms: _459  and  _461
REMARK  189  A    between atoms: _461  and  _462
REMARK  190  A    between atoms: _464  and  _466
REMARK  191  A    between atoms: _466  and  _467
REMARK  192  A    between atoms: _466  and  _469
REMARK  193  A    between atoms: _469  and  _470
REMARK  194  A    between atoms: _476  and  _478
REMARK  195  A    between atoms: _478  and  _479
REMARK  196  A    between atoms: _478  and  _481
REMARK  197  A    between atoms: _481  and  _482
REMARK  198  A    between atoms: _485  and  _487
REMARK  199  A    between atoms: _487  and  _488
REMARK  200  A    between atoms: _487  and  _490
REMARK  201  A    between atoms: _493  and  _495
REMARK  202  A    between atoms: _495  and  _496
REMARK  203  A    between atoms: _495  and  _498
REMARK  204  A    between atoms: _498  and  _499
REMARK  205  A    between atoms: _503  and  _504
REMARK  206  A    between atoms: _509  and  _511
REMARK  207  A    between atoms: _511  and  _512
REMARK  208  A    between atoms: _511  and  _514
REMARK  209  A    between atoms: _514  and  _515
REMARK  210  A    between atoms: _519  and  _520
REMARK  211  A    between atoms: _525  and  _527
REMARK  212  A    between atoms: _527  and  _528
REMARK  213  A    between atoms: _527  and  _530
REMARK  214  A    between atoms: _533  and  _535
REMARK  215  A    between atoms: _535  and  _536
REMARK  216  A    between atoms: _535  and  _538
REMARK  217  A    between atoms: _538  and  _539
REMARK  218  A    between atoms: _544  and  _546
REMARK  219  A    between atoms: _546  and  _547
REMARK  220  A    between atoms: _546  and  _549
REMARK  221  A    between atoms: _549  and  _550
REMARK  222  A    between atoms: _553  and  _555
REMARK  223  A    between atoms: _555  and  _556
REMARK  224  A    between atoms: _555  and  _558
REMARK  225  A    between atoms: _558  and  _559
REMARK  226  A    between atoms: _562  and  _564
REMARK  227  A    between atoms: _564  and  _565
REMARK  228  A    between atoms: _567  and  _569
REMARK  229  A    between atoms: _569  and  _570
REMARK  230  A    between atoms: _569  and  _572
REMARK  231  A    between atoms: _572  and  _573
REMARK  232  A    between atoms: _573  and  _574
REMARK  233  A    between atoms: _574  and  _575
REMARK                            x       y       z     vdW  Elec       q    Type
REMARK                         _______ _______ _______ _____ _____    ______ ____
ROOT
ATOM      1  O   HOH     1      27.059  32.825  13.918  0.00  0.00    +0.000 OA
ENDROOT
TORSDOF 0
REMARK  Name = ../refined-set-2016/3cyx/3cyx_pocket.pdb
REMARK  233 active torsions:
REMARK  status: ('A' for Active; 'I' for Inactive)
REMARK    1  A    between atoms: _1  and  _3
REMARK    2  A    between atoms: _3  and  _4
REMARK    3  A    between atoms: _3  and  _6
REMARK    4  A    between atoms: _6  and  _7
REMARK    5  A    between atoms: _7  and  _8
REMARK    6  A    between atoms: _8  and  _9
REMARK    7  A    between atoms: _18  and  _20
REMARK    8  A    between atoms: _20  and  _21
REMARK    9  A    between atoms: _20  and  _23
REMARK   10  A    between atoms: _23  and  _24
REMARK   11  A    between atoms: _27  and  _29
REMARK   12  A    between atoms: _29  and  _30
REMARK   13  A    between atoms: _29  and  _32
REMARK   14  A    between atoms: _32  and  _33
REMARK   15  A    between atoms: _36  and  _38
REMARK   16  A    between atoms: _38  and  _39
REMARK   17  A    between atoms: _38  and  _41
REMARK   18  A    between atoms: _41  and  _42
REMARK   19  A    between atoms: _45  and  _47
REMARK   20  A    between atoms: _47  and  _48
REMARK   21  A    between atoms: _47  and  _50
REMARK   22  A    between atoms: _50  and  _51
REMARK   23  A    between atoms: _54  and  _56
REMARK   24  A    between atoms: _56  and  _57
REMARK   25  A    between atoms: _59  and  _61
REMARK   26  A    between atoms: _61  and  _62
REMARK   27  A    between atoms: _65  and  _67
REMARK   28  A    between atoms: _67  and  _68
REMARK   29  A    between atoms: _67  and  _70
REMARK   30  A    between atoms: _70  and  _71
REMARK   31  A    between atoms: _74  and  _76
REMARK   32  A    between atoms: _76  and  _77
REMARK   33  A    between atoms: _76  and  _79
REMARK   34  A    between atoms: _79  and  _80
REMARK   35  A    between atoms: _83  and  _85
REMARK   36  A    between atoms: _85  and  _86
REMARK   37  A    between atoms: _85  and  _88
REMARK   38  A    between atoms: _88  and  _89
REMARK   39  A    between atoms: _92  and  _94
REMARK   40  A    between atoms: _94  and  _95
REMARK   41  A    between atoms: _94  and  _97
REMARK   42  A    between atoms: _100  and  _102
REMARK   43  A    between atoms: _102  and  _103
REMARK   44  A    between atoms: _102  and  _105
REMARK   45  A    between atoms: _105  and  _106
REMARK   46  A    between atoms: _106  and  _107
REMARK   47  A    between atoms: _107  and  _108
REMARK   48  A    between atoms: _108  and  _109
REMARK   49  A    between atoms: _113  and  _115
REMARK   50  A    between atoms: _115  and  _116
REMARK   51  A    between atoms: _115  and  _118
REMARK   52  A    between atoms: _118  and  _119
REMARK   53  A    between atoms: _119  and  _120
REMARK   54  A    between atoms: _122  and  _124
REMARK   55  A    between atoms: _124  and  _125
REMARK   56  A    between atoms: _124  and  _127
REMARK   57  A    between atoms: _127  and  _128
REMARK   58  A    between atoms: _131  and  _133
REMARK   59  A    between atoms: _133  and  _134
REMARK   60  A    between atoms: _136  and  _138
REMARK   61  A    between atoms: _138  and  _139
REMARK   62  A    between atoms: _141  and  _143
REMARK   63  A    between atoms: _143  and  _144
REMARK   64  A    between atoms: _143  and  _146
REMARK   65  A    between atoms: _149  and  _151
REMARK   66  A    between atoms: _151  and  _152
REMARK   67  A    between atoms: _154  and  _156
REMARK   68  A    between atoms: _156  and  _157
REMARK   69  A    between atoms: _159  and  _161
REMARK   70  A    between atoms: _161  and  _162
REMARK   71  A    between atoms: _161  and  _164
REMARK   72  A    between atoms: _164  and  _165
REMARK   73  A    between atoms: _171  and  _173
REMARK   74  A    between atoms: _173  and  _174
REMARK   75  A    between atoms: _173  and  _176
REMARK   76  A    between atoms: _176  and  _177
REMARK   77  A    between atoms: _180  and  _182
REMARK   78  A    between atoms: _182  and  _183
REMARK   79  A    between atoms: _182  and  _185
REMARK   80  A    between atoms: _188  and  _190
REMARK   81  A    between atoms: _190  and  _191
REMARK   82  A    between atoms: _190  and  _193
REMARK   83  A    between atoms: _193  and  _194
REMARK   84  A    between atoms: _198  and  _199
REMARK   85  A    between atoms: _204  and  _206
REMARK   86  A    between atoms: _206  and  _207
REMARK   87  A    between atoms: _206  and  _209
REMARK   88  A    between atoms: _209  and  _210
REMARK   89  A    between atoms: _214  and  _215
REMARK   90  A    between atoms: _220  and  _222
REMARK   91  A    between atoms: _222  and  _223
REMARK   92  A    between atoms: _222  and  _225
REMARK   93  A    between atoms: _228  and  _230
REMARK   94  A    between atoms: _230  and  _231
REMARK   95  A    between atoms: _230  and  _233
REMARK   96  A    between atoms: _233  and  _234
REMARK   97  A    between atoms: _239  and  _241
REMARK   98  A    between atoms: _241  and  _242
REMARK   99  A    between atoms: _241  and  _244
REMARK  100  A    between atoms: _244  and  _245
REMARK  101  A    between atoms: _248  and  _250
REMARK  102  A    between atoms: _250  and  _251
REMARK  103  A    between atoms: _250  and  _253
REMARK  104  A    between atoms: _253  and  _254
REMARK  105  A    between atoms: _257  and  _259
REMARK  106  A    between atoms: _259  and  _260
REMARK  107  A    between atoms: _262  and  _264
REMARK  108  A    between atoms: _264  and  _265
REMARK  109  A    between atoms: _264  and  _267
REMARK  110  A    between atoms: _267  and  _268
REMARK  111  A    between atoms: _268  and  _269
REMARK  112  A    between atoms: _269  and  _270
REMARK  113  A    between atoms: _279  and  _281
REMARK  114  A    between atoms: _281  and  _282
REMARK  115  A    between atoms: _281  and  _284
REMARK  116  A    between atoms: _284  and  _285
REMARK  117  A    between atoms: _290  and  _292
REMARK  118  A    between atoms: _292  and  _293
REMARK  119  A    between atoms: _292  and  _295
REMARK  120  A    between atoms: _295  and  _296
REMARK  121  A    between atoms: _296  and  _297
REMARK  122  A    between atoms: _297  and  _298
REMARK  123  A    between atoms: _308  and  _309
REMARK  124  A    between atoms: _314  and  _316
REMARK  125  A    between atoms: _316  and  _317
REMARK  126  A    between atoms: _316  and  _319
REMARK  127  A    between atoms: _319  and  _320
REMARK  128  A    between atoms: _323  and  _325
REMARK  129  A    between atoms: _325  and  _326
REMARK  130  A    between atoms: _325  and  _328
REMARK  131  A    between atoms: _328  and  _329
REMARK  132  A    between atoms: _332  and  _334
REMARK  133  A    between atoms: _334  and  _335
REMARK  134  A    between atoms: _334  and  _337
REMARK  135  A    between atoms: _337  and  _338
REMARK  136  A    between atoms: _341  and  _343
REMARK  137  A    between atoms: _343  and  _344
REMARK  138  A    between atoms: _343  and  _346
REMARK  139  A    between atoms: _346  and  _347
REMARK  140  A    between atoms: _350  and  _352
REMARK  141  A    between atoms: _352  and  _353
REMARK  142  A    between atoms: _352  and  _355
REMARK  143  A    between atoms: _355  and  _356
REMARK  144  A    between atoms: _359  and  _361
REMARK  145  A    between atoms: _361  and  _362
REMARK  146  A    between atoms: _364  and  _366
REMARK  147  A    between atoms: _366  and  _367
REMARK  148  A    between atoms: _370  and  _372
REMARK  149  A    between atoms: _372  and  _373
REMARK  150  A    between atoms: _372  and  _375
REMARK  151  A    between atoms: _375  and  _376
REMARK  152  A    between atoms: _379  and  _381
REMARK  153  A    between atoms: _381  and  _382
REMARK  154  A    between atoms: _381  and  _384
REMARK  155  A    between atoms: _384  and  _385
REMARK  156  A    between atoms: _388  and  _390
REMARK  157  A    between atoms: _390  and  _391
REMARK  158  A    between atoms: _390  and  _393
REMARK  159  A    between atoms: _393  and  _394
REMARK  160  A    between atoms: _397  and  _399
REMARK  161  A    between atoms: _399  and  _400
REMARK  162  A    between atoms: _399  and  _402
REMARK  163  A    between atoms: _405  and  _407
REMARK  164  A    between atoms: _407  and  _408
REMARK  165  A    between atoms: _407  and  _410
REMARK  166  A    between atoms: _410  and  _411
REMARK  167  A    between atoms: _411  and  _412
REMARK  168  A    between atoms: _412  and  _413
REMARK  169  A    between atoms: _413  and  _414
REMARK  170  A    between atoms: _418  and  _420
REMARK  171  A    between atoms: _420  and  _421
REMARK  172  A    between atoms: _420  and  _423
REMARK  173  A    between atoms: _423  and  _424
REMARK  174  A    between atoms: _424  and  _425
REMARK  175  A    between atoms: _427  and  _429
REMARK  176  A    between atoms: _429  and  _430
REMARK  177  A    between atoms: _429  and  _432
REMARK  178  A    between atoms: _432  and  _433
REMARK  179  A    between atoms: _436  and  _438
REMARK  180  A    between atoms: _438  and  _439
REMARK  181  A    between atoms: _441  and  _443
REMARK  182  A    between atoms: _443  and  _444
REMARK  183  A    between atoms: _446  and  _448
REMARK  184  A    between atoms: _448  and  _449
REMARK  185  A    between atoms: _448  and  _451
REMARK  186  A    between atoms: _454  and  _456
REMARK  187  A    between atoms: _456  and  _457
REMARK  188  A    between atoms: _459  and  _461
REMARK  189  A    between atoms: _461  and  _462
REMARK  190  A    between atoms: _464  and  _466
REMARK  191  A    between atoms: _466  and  _467
REMARK  192  A    between atoms: _466  and  _469
REMARK  193  A    between atoms: _469  and  _470
REMARK  194  A    between atoms: _476  and  _478
REMARK  195  A    between atoms: _478  and  _479
REMARK  196  A    between atoms: _478  and  _481
REMARK  197  A    between atoms: _481  and  _482
REMARK  198  A    between atoms: _485  and  _487
REMARK  199  A    between atoms: _487  and  _488
REMARK  200  A    between atoms: _487  and  _490
REMARK  201  A    between atoms: _493  and  _495
REMARK  202  A    between atoms: _495  and  _496
REMARK  203  A    between atoms: _495  and  _498
REMARK  204  A    between atoms: _498  and  _499
REMARK  205  A    between atoms: _503  and  _504
REMARK  206  A    between atoms: _509  and  _511
REMARK  207  A    between atoms: _511  and  _512
REMARK  208  A    between atoms: _511  and  _514
REMARK  209  A    between atoms: _514  and  _515
REMARK  210  A    between atoms: _519  and  _520
REMARK  211  A    between atoms: _525  and  _527
REMARK  212  A    between atoms: _527  and  _528
REMARK  213  A    between atoms: _527  and  _530
REMARK  214  A    between atoms: _533  and  _535
REMARK  215  A    between atoms: _535  and  _536
REMARK  216  A    between atoms: _535  and  _538
REMARK  217  A    between atoms: _538  and  _539
REMARK  218  A    between atoms: _544  and  _546
REMARK  219  A    between atoms: _546  and  _547
REMARK  220  A    between atoms: _546  and  _549
REMARK  221  A    between atoms: _549  and  _550
REMARK  222  A    between atoms: _553  and  _555
REMARK  223  A    between atoms: _555  and  _556
REMARK  224  A    between atoms: _555  and  _558
REMARK  225  A    between atoms: _558  and  _559
REMARK  226  A    between atoms: _562  and  _564
REMARK  227  A    between atoms: _564  and  _565
REMARK  228  A    between atoms: _567  and  _569
REMARK  229  A    between atoms: _569  and  _570
REMARK  230  A    between atoms: _569  and  _572
REMARK  231  A    between atoms: _572  and  _573
REMARK  232  A    between atoms: _573  and  _574
REMARK  233  A    between atoms: _574  and  _575
REMARK                            x       y       z     vdW  Elec       q    Type
REMARK                         _______ _______ _______ _____ _____    ______ ____
ROOT
ATOM      1  O   HOH     1       7.435  24.022  18.283  0.00  0.00    +0.000 OA
ENDROOT
TORSDOF 0
REMARK  Name = ../refined-set-2016/3cyx/3cyx_pocket.pdb
REMARK  233 active torsions:
REMARK  status: ('A' for Active; 'I' for Inactive)
REMARK    1  A    between atoms: _1  and  _3
REMARK    2  A    between atoms: _3  and  _4
REMARK    3  A    between atoms: _3  and  _6
REMARK    4  A    between atoms: _6  and  _7
REMARK    5  A    between atoms: _7  and  _8
REMARK    6  A    between atoms: _8  and  _9
REMARK    7  A    between atoms: _18  and  _20
REMARK    8  A    between atoms: _20  and  _21
REMARK    9  A    between atoms: _20  and  _23
REMARK   10  A    between atoms: _23  and  _24
REMARK   11  A    between atoms: _27  and  _29
REMARK   12  A    between atoms: _29  and  _30
REMARK   13  A    between atoms: _29  and  _32
REMARK   14  A    between atoms: _32  and  _33
REMARK   15  A    between atoms: _36  and  _38
REMARK   16  A    between atoms: _38  and  _39
REMARK   17  A    between atoms: _38  and  _41
REMARK   18  A    between atoms: _41  and  _42
REMARK   19  A    between atoms: _45  and  _47
REMARK   20  A    between atoms: _47  and  _48
REMARK   21  A    between atoms: _47  and  _50
REMARK   22  A    between atoms: _50  and  _51
REMARK   23  A    between atoms: _54  and  _56
REMARK   24  A    between atoms: _56  and  _57
REMARK   25  A    between atoms: _59  and  _61
REMARK   26  A    between atoms: _61  and  _62
REMARK   27  A    between atoms: _65  and  _67
REMARK   28  A    between atoms: _67  and  _68
REMARK   29  A    between atoms: _67  and  _70
REMARK   30  A    between atoms: _70  and  _71
REMARK   31  A    between atoms: _74  and  _76
REMARK   32  A    between atoms: _76  and  _77
REMARK   33  A    between atoms: _76  and  _79
REMARK   34  A    between atoms: _79  and  _80
REMARK   35  A    between atoms: _83  and  _85
REMARK   36  A    between atoms: _85  and  _86
REMARK   37  A    between atoms: _85  and  _88
REMARK   38  A    between atoms: _88  and  _89
REMARK   39  A    between atoms: _92  and  _94
REMARK   40  A    between atoms: _94  and  _95
REMARK   41  A    between atoms: _94  and  _97
REMARK   42  A    between atoms: _100  and  _102
REMARK   43  A    between atoms: _102  and  _103
REMARK   44  A    between atoms: _102  and  _105
REMARK   45  A    between atoms: _105  and  _106
REMARK   46  A    between atoms: _106  and  _107
REMARK   47  A    between atoms: _107  and  _108
REMARK   48  A    between atoms: _108  and  _109
REMARK   49  A    between atoms: _113  and  _115
REMARK   50  A    between atoms: _115  and  _116
REMARK   51  A    between atoms: _115  and  _118
REMARK   52  A    between atoms: _118  and  _119
REMARK   53  A    between atoms: _119  and  _120
REMARK   54  A    between atoms: _122  and  _124
REMARK   55  A    between atoms: _124  and  _125
REMARK   56  A    between atoms: _124  and  _127
REMARK   57  A    between atoms: _127  and  _128
REMARK   58  A    between atoms: _131  and  _133
REMARK   59  A    between atoms: _133  and  _134
REMARK   60  A    between atoms: _136  and  _138
REMARK   61  A    between atoms: _138  and  _139
REMARK   62  A    between atoms: _141  and  _143
REMARK   63  A    between atoms: _143  and  _144
REMARK   64  A    between atoms: _143  and  _146
REMARK   65  A    between atoms: _149  and  _151
REMARK   66  A    between atoms: _151  and  _152
REMARK   67  A    between atoms: _154  and  _156
REMARK   68  A    between atoms: _156  and  _157
REMARK   69  A    between atoms: _159  and  _161
REMARK   70  A    between atoms: _161  and  _162
REMARK   71  A    between atoms: _161  and  _164
REMARK   72  A    between atoms: _164  and  _165
REMARK   73  A    between atoms: _171  and  _173
REMARK   74  A    between atoms: _173  and  _174
REMARK   75  A    between atoms: _173  and  _176
REMARK   76  A    between atoms: _176  and  _177
REMARK   77  A    between atoms: _180  and  _182
REMARK   78  A    between atoms: _182  and  _183
REMARK   79  A    between atoms: _182  and  _185
REMARK   80  A    between atoms: _188  and  _190
REMARK   81  A    between atoms: _190  and  _191
REMARK   82  A    between atoms: _190  and  _193
REMARK   83  A    between atoms: _193  and  _194
REMARK   84  A    between atoms: _198  and  _199
REMARK   85  A    between atoms: _204  and  _206
REMARK   86  A    between atoms: _206  and  _207
REMARK   87  A    between atoms: _206  and  _209
REMARK   88  A    between atoms: _209  and  _210
REMARK   89  A    between atoms: _214  and  _215
REMARK   90  A    between atoms: _220  and  _222
REMARK   91  A    between atoms: _222  and  _223
REMARK   92  A    between atoms: _222  and  _225
REMARK   93  A    between atoms: _228  and  _230
REMARK   94  A    between atoms: _230  and  _231
REMARK   95  A    between atoms: _230  and  _233
REMARK   96  A    between atoms: _233  and  _234
REMARK   97  A    between atoms: _239  and  _241
REMARK   98  A    between atoms: _241  and  _242
REMARK   99  A    between atoms: _241  and  _244
REMARK  100  A    between atoms: _244  and  _245
REMARK  101  A    between atoms: _248  and  _250
REMARK  102  A    between atoms: _250  and  _251
REMARK  103  A    between atoms: _250  and  _253
REMARK  104  A    between atoms: _253  and  _254
REMARK  105  A    between atoms: _257  and  _259
REMARK  106  A    between atoms: _259  and  _260
REMARK  107  A    between atoms: _262  and  _264
REMARK  108  A    between atoms: _264  and  _265
REMARK  109  A    between atoms: _264  and  _267
REMARK  110  A    between atoms: _267  and  _268
REMARK  111  A    between atoms: _268  and  _269
REMARK  112  A    between atoms: _269  and  _270
REMARK  113  A    between atoms: _279  and  _281
REMARK  114  A    between atoms: _281  and  _282
REMARK  115  A    between atoms: _281  and  _284
REMARK  116  A    between atoms: _284  and  _285
REMARK  117  A    between atoms: _290  and  _292
REMARK  118  A    between atoms: _292  and  _293
REMARK  119  A    between atoms: _292  and  _295
REMARK  120  A    between atoms: _295  and  _296
REMARK  121  A    between atoms: _296  and  _297
REMARK  122  A    between atoms: _297  and  _298
REMARK  123  A    between atoms: _308  and  _309
REMARK  124  A    between atoms: _314  and  _316
REMARK  125  A    between atoms: _316  and  _317
REMARK  126  A    between atoms: _316  and  _319
REMARK  127  A    between atoms: _319  and  _320
REMARK  128  A    between atoms: _323  and  _325
REMARK  129  A    between atoms: _325  and  _326
REMARK  130  A    between atoms: _325  and  _328
REMARK  131  A    between atoms: _328  and  _329
REMARK  132  A    between atoms: _332  and  _334
REMARK  133  A    between atoms: _334  and  _335
REMARK  134  A    between atoms: _334  and  _337
REMARK  135  A    between atoms: _337  and  _338
REMARK  136  A    between atoms: _341  and  _343
REMARK  137  A    between atoms: _343  and  _344
REMARK  138  A    between atoms: _343  and  _346
REMARK  139  A    between atoms: _346  and  _347
REMARK  140  A    between atoms: _350  and  _352
REMARK  141  A    between atoms: _352  and  _353
REMARK  142  A    between atoms: _352  and  _355
REMARK  143  A    between atoms: _355  and  _356
REMARK  144  A    between atoms: _359  and  _361
REMARK  145  A    between atoms: _361  and  _362
REMARK  146  A    between atoms: _364  and  _366
REMARK  147  A    between atoms: _366  and  _367
REMARK  148  A    between atoms: _370  and  _372
REMARK  149  A    between atoms: _372  and  _373
REMARK  150  A    between atoms: _372  and  _375
REMARK  151  A    between atoms: _375  and  _376
REMARK  152  A    between atoms: _379  and  _381
REMARK  153  A    between atoms: _381  and  _382
REMARK  154  A    between atoms: _381  and  _384
REMARK  155  A    between atoms: _384  and  _385
REMARK  156  A    between atoms: _388  and  _390
REMARK  157  A    between atoms: _390  and  _391
REMARK  158  A    between atoms: _390  and  _393
REMARK  159  A    between atoms: _393  and  _394
REMARK  160  A    between atoms: _397  and  _399
REMARK  161  A    between atoms: _399  and  _400
REMARK  162  A    between atoms: _399  and  _402
REMARK  163  A    between atoms: _405  and  _407
REMARK  164  A    between atoms: _407  and  _408
REMARK  165  A    between atoms: _407  and  _410
REMARK  166  A    between atoms: _410  and  _411
REMARK  167  A    between atoms: _411  and  _412
REMARK  168  A    between atoms: _412  and  _413
REMARK  169  A    between atoms: _413  and  _414
REMARK  170  A    between atoms: _418  and  _420
REMARK  171  A    between atoms: _420  and  _421
REMARK  172  A    between atoms: _420  and  _423
REMARK  173  A    between atoms: _423  and  _424
REMARK  174  A    between atoms: _424  and  _425
REMARK  175  A    between atoms: _427  and  _429
REMARK  176  A    between atoms: _429  and  _430
REMARK  177  A    between atoms: _429  and  _432
REMARK  178  A    between atoms: _432  and  _433
REMARK  179  A    between atoms: _436  and  _438
REMARK  180  A    between atoms: _438  and  _439
REMARK  181  A    between atoms: _441  and  _443
REMARK  182  A    between atoms: _443  and  _444
REMARK  183  A    between atoms: _446  and  _448
REMARK  184  A    between atoms: _448  and  _449
REMARK  185  A    between atoms: _448  and  _451
REMARK  186  A    between atoms: _454  and  _456
REMARK  187  A    between atoms: _456  and  _457
REMARK  188  A    between atoms: _459  and  _461
REMARK  189  A    between atoms: _461  and  _462
REMARK  190  A    between atoms: _464  and  _466
REMARK  191  A    between atoms: _466  and  _467
REMARK  192  A    between atoms: _466  and  _469
REMARK  193  A    between atoms: _469  and  _470
REMARK  194  A    between atoms: _476  and  _478
REMARK  195  A    between atoms: _478  and  _479
REMARK  196  A    between atoms: _478  and  _481
REMARK  197  A    between atoms: _481  and  _482
REMARK  198  A    between atoms: _485  and  _487
REMARK  199  A    between atoms: _487  and  _488
REMARK  200  A    between atoms: _487  and  _490
REMARK  201  A    between atoms: _493  and  _495
REMARK  202  A    between atoms: _495  and  _496
REMARK  203  A    between atoms: _495  and  _498
REMARK  204  A    between atoms: _498  and  _499
REMARK  205  A    between atoms: _503  and  _504
REMARK  206  A    between atoms: _509  and  _511
REMARK  207  A    between atoms: _511  and  _512
REMARK  208  A    between atoms: _511  and  _514
REMARK  209  A    between atoms: _514  and  _515
REMARK  210  A    between atoms: _519  and  _520
REMARK  211  A    between atoms: _525  and  _527
REMARK  212  A    between atoms: _527  and  _528
REMARK  213  A    between atoms: _527  and  _530
REMARK  214  A    between atoms: _533  and  _535
REMARK  215  A    between atoms: _535  and  _536
REMARK  216  A    between atoms: _535  and  _538
REMARK  217  A    between atoms: _538  and  _539
REMARK  218  A    between atoms: _544  and  _546
REMARK  219  A    between atoms: _546  and  _547
REMARK  220  A    between atoms: _546  and  _549
REMARK  221  A    between atoms: _549  and  _550
REMARK  222  A    between atoms: _553  and  _555
REMARK  223  A    between atoms: _555  and  _556
REMARK  224  A    between atoms: _555  and  _558
REMARK  225  A    between atoms: _558  and  _559
REMARK  226  A    between atoms: _562  and  _564
REMARK  227  A    between atoms: _564  and  _565
REMARK  228  A    between atoms: _567  and  _569
REMARK  229  A    between atoms: _569  and  _570
REMARK  230  A    between atoms: _569  and  _572
REMARK  231  A    between atoms: _572  and  _573
REMARK  232  A    between atoms: _573  and  _574
REMARK  233  A    between atoms: _574  and  _575
REMARK                            x       y       z     vdW  Elec       q    Type
REMARK                         _______ _______ _______ _____ _____    ______ ____
ROOT
ATOM      1  O   HOH     1       9.234  16.111  26.882  0.00  0.00    +0.000 OA
ENDROOT
TORSDOF 0
REMARK  Name = ../refined-set-2016/3cyx/3cyx_pocket.pdb
REMARK  233 active torsions:
REMARK  status: ('A' for Active; 'I' for Inactive)
REMARK    1  A    between atoms: _1  and  _3
REMARK    2  A    between atoms: _3  and  _4
REMARK    3  A    between atoms: _3  and  _6
REMARK    4  A    between atoms: _6  and  _7
REMARK    5  A    between atoms: _7  and  _8
REMARK    6  A    between atoms: _8  and  _9
REMARK    7  A    between atoms: _18  and  _20
REMARK    8  A    between atoms: _20  and  _21
REMARK    9  A    between atoms: _20  and  _23
REMARK   10  A    between atoms: _23  and  _24
REMARK   11  A    between atoms: _27  and  _29
REMARK   12  A    between atoms: _29  and  _30
REMARK   13  A    between atoms: _29  and  _32
REMARK   14  A    between atoms: _32  and  _33
REMARK   15  A    between atoms: _36  and  _38
REMARK   16  A    between atoms: _38  and  _39
REMARK   17  A    between atoms: _38  and  _41
REMARK   18  A    between atoms: _41  and  _42
REMARK   19  A    between atoms: _45  and  _47
REMARK   20  A    between atoms: _47  and  _48
REMARK   21  A    between atoms: _47  and  _50
REMARK   22  A    between atoms: _50  and  _51
REMARK   23  A    between atoms: _54  and  _56
REMARK   24  A    between atoms: _56  and  _57
REMARK   25  A    between atoms: _59  and  _61
REMARK   26  A    between atoms: _61  and  _62
REMARK   27  A    between atoms: _65  and  _67
REMARK   28  A    between atoms: _67  and  _68
REMARK   29  A    between atoms: _67  and  _70
REMARK   30  A    between atoms: _70  and  _71
REMARK   31  A    between atoms: _74  and  _76
REMARK   32  A    between atoms: _76  and  _77
REMARK   33  A    between atoms: _76  and  _79
REMARK   34  A    between atoms: _79  and  _80
REMARK   35  A    between atoms: _83  and  _85
REMARK   36  A    between atoms: _85  and  _86
REMARK   37  A    between atoms: _85  and  _88
REMARK   38  A    between atoms: _88  and  _89
REMARK   39  A    between atoms: _92  and  _94
REMARK   40  A    between atoms: _94  and  _95
REMARK   41  A    between atoms: _94  and  _97
REMARK   42  A    between atoms: _100  and  _102
REMARK   43  A    between atoms: _102  and  _103
REMARK   44  A    between atoms: _102  and  _105
REMARK   45  A    between atoms: _105  and  _106
REMARK   46  A    between atoms: _106  and  _107
REMARK   47  A    between atoms: _107  and  _108
REMARK   48  A    between atoms: _108  and  _109
REMARK   49  A    between atoms: _113  and  _115
REMARK   50  A    between atoms: _115  and  _116
REMARK   51  A    between atoms: _115  and  _118
REMARK   52  A    between atoms: _118  and  _119
REMARK   53  A    between atoms: _119  and  _120
REMARK   54  A    between atoms: _122  and  _124
REMARK   55  A    between atoms: _124  and  _125
REMARK   56  A    between atoms: _124  and  _127
REMARK   57  A    between atoms: _127  and  _128
REMARK   58  A    between atoms: _131  and  _133
REMARK   59  A    between atoms: _133  and  _134
REMARK   60  A    between atoms: _136  and  _138
REMARK   61  A    between atoms: _138  and  _139
REMARK   62  A    between atoms: _141  and  _143
REMARK   63  A    between atoms: _143  and  _144
REMARK   64  A    between atoms: _143  and  _146
REMARK   65  A    between atoms: _149  and  _151
REMARK   66  A    between atoms: _151  and  _152
REMARK   67  A    between atoms: _154  and  _156
REMARK   68  A    between atoms: _156  and  _157
REMARK   69  A    between atoms: _159  and  _161
REMARK   70  A    between atoms: _161  and  _162
REMARK   71  A    between atoms: _161  and  _164
REMARK   72  A    between atoms: _164  and  _165
REMARK   73  A    between atoms: _171  and  _173
REMARK   74  A    between atoms: _173  and  _174
REMARK   75  A    between atoms: _173  and  _176
REMARK   76  A    between atoms: _176  and  _177
REMARK   77  A    between atoms: _180  and  _182
REMARK   78  A    between atoms: _182  and  _183
REMARK   79  A    between atoms: _182  and  _185
REMARK   80  A    between atoms: _188  and  _190
REMARK   81  A    between atoms: _190  and  _191
REMARK   82  A    between atoms: _190  and  _193
REMARK   83  A    between atoms: _193  and  _194
REMARK   84  A    between atoms: _198  and  _199
REMARK   85  A    between atoms: _204  and  _206
REMARK   86  A    between atoms: _206  and  _207
REMARK   87  A    between atoms: _206  and  _209
REMARK   88  A    between atoms: _209  and  _210
REMARK   89  A    between atoms: _214  and  _215
REMARK   90  A    between atoms: _220  and  _222
REMARK   91  A    between atoms: _222  and  _223
REMARK   92  A    between atoms: _222  and  _225
REMARK   93  A    between atoms: _228  and  _230
REMARK   94  A    between atoms: _230  and  _231
REMARK   95  A    between atoms: _230  and  _233
REMARK   96  A    between atoms: _233  and  _234
REMARK   97  A    between atoms: _239  and  _241
REMARK   98  A    between atoms: _241  and  _242
REMARK   99  A    between atoms: _241  and  _244
REMARK  100  A    between atoms: _244  and  _245
REMARK  101  A    between atoms: _248  and  _250
REMARK  102  A    between atoms: _250  and  _251
REMARK  103  A    between atoms: _250  and  _253
REMARK  104  A    between atoms: _253  and  _254
REMARK  105  A    between atoms: _257  and  _259
REMARK  106  A    between atoms: _259  and  _260
REMARK  107  A    between atoms: _262  and  _264
REMARK  108  A    between atoms: _264  and  _265
REMARK  109  A    between atoms: _264  and  _267
REMARK  110  A    between atoms: _267  and  _268
REMARK  111  A    between atoms: _268  and  _269
REMARK  112  A    between atoms: _269  and  _270
REMARK  113  A    between atoms: _279  and  _281
REMARK  114  A    between atoms: _281  and  _282
REMARK  115  A    between atoms: _281  and  _284
REMARK  116  A    between atoms: _284  and  _285
REMARK  117  A    between atoms: _290  and  _292
REMARK  118  A    between atoms: _292  and  _293
REMARK  119  A    between atoms: _292  and  _295
REMARK  120  A    between atoms: _295  and  _296
REMARK  121  A    between atoms: _296  and  _297
REMARK  122  A    between atoms: _297  and  _298
REMARK  123  A    between atoms: _308  and  _309
REMARK  124  A    between atoms: _314  and  _316
REMARK  125  A    between atoms: _316  and  _317
REMARK  126  A    between atoms: _316  and  _319
REMARK  127  A    between atoms: _319  and  _320
REMARK  128  A    between atoms: _323  and  _325
REMARK  129  A    between atoms: _325  and  _326
REMARK  130  A    between atoms: _325  and  _328
REMARK  131  A    between atoms: _328  and  _329
REMARK  132  A    between atoms: _332  and  _334
REMARK  133  A    between atoms: _334  and  _335
REMARK  134  A    between atoms: _334  and  _337
REMARK  135  A    between atoms: _337  and  _338
REMARK  136  A    between atoms: _341  and  _343
REMARK  137  A    between atoms: _343  and  _344
REMARK  138  A    between atoms: _343  and  _346
REMARK  139  A    between atoms: _346  and  _347
REMARK  140  A    between atoms: _350  and  _352
REMARK  141  A    between atoms: _352  and  _353
REMARK  142  A    between atoms: _352  and  _355
REMARK  143  A    between atoms: _355  and  _356
REMARK  144  A    between atoms: _359  and  _361
REMARK  145  A    between atoms: _361  and  _362
REMARK  146  A    between atoms: _364  and  _366
REMARK  147  A    between atoms: _366  and  _367
REMARK  148  A    between atoms: _370  and  _372
REMARK  149  A    between atoms: _372  and  _373
REMARK  150  A    between atoms: _372  and  _375
REMARK  151  A    between atoms: _375  and  _376
REMARK  152  A    between atoms: _379  and  _381
REMARK  153  A    between atoms: _381  and  _382
REMARK  154  A    between atoms: _381  and  _384
REMARK  155  A    between atoms: _384  and  _385
REMARK  156  A    between atoms: _388  and  _390
REMARK  157  A    between atoms: _390  and  _391
REMARK  158  A    between atoms: _390  and  _393
REMARK  159  A    between atoms: _393  and  _394
REMARK  160  A    between atoms: _397  and  _399
REMARK  161  A    between atoms: _399  and  _400
REMARK  162  A    between atoms: _399  and  _402
REMARK  163  A    between atoms: _405  and  _407
REMARK  164  A    between atoms: _407  and  _408
REMARK  165  A    between atoms: _407  and  _410
REMARK  166  A    between atoms: _410  and  _411
REMARK  167  A    between atoms: _411  and  _412
REMARK  168  A    between atoms: _412  and  _413
REMARK  169  A    between atoms: _413  and  _414
REMARK  170  A    between atoms: _418  and  _420
REMARK  171  A    between atoms: _420  and  _421
REMARK  172  A    between atoms: _420  and  _423
REMARK  173  A    between atoms: _423  and  _424
REMARK  174  A    between atoms: _424  and  _425
REMARK  175  A    between atoms: _427  and  _429
REMARK  176  A    between atoms: _429  and  _430
REMARK  177  A    between atoms: _429  and  _432
REMARK  178  A    between atoms: _432  and  _433
REMARK  179  A    between atoms: _436  and  _438
REMARK  180  A    between atoms: _438  and  _439
REMARK  181  A    between atoms: _441  and  _443
REMARK  182  A    between atoms: _443  and  _444
REMARK  183  A    between atoms: _446  and  _448
REMARK  184  A    between atoms: _448  and  _449
REMARK  185  A    between atoms: _448  and  _451
REMARK  186  A    between atoms: _454  and  _456
REMARK  187  A    between atoms: _456  and  _457
REMARK  188  A    between atoms: _459  and  _461
REMARK  189  A    between atoms: _461  and  _462
REMARK  190  A    between atoms: _464  and  _466
REMARK  191  A    between atoms: _466  and  _467
REMARK  192  A    between atoms: _466  and  _469
REMARK  193  A    between atoms: _469  and  _470
REMARK  194  A    between atoms: _476  and  _478
REMARK  195  A    between atoms: _478  and  _479
REMARK  196  A    between atoms: _478  and  _481
REMARK  197  A    between atoms: _481  and  _482
REMARK  198  A    between atoms: _485  and  _487
REMARK  199  A    between atoms: _487  and  _488
REMARK  200  A    between atoms: _487  and  _490
REMARK  201  A    between atoms: _493  and  _495
REMARK  202  A    between atoms: _495  and  _496
REMARK  203  A    between atoms: _495  and  _498
REMARK  204  A    between atoms: _498  and  _499
REMARK  205  A    between atoms: _503  and  _504
REMARK  206  A    between atoms: _509  and  _511
REMARK  207  A    between atoms: _511  and  _512
REMARK  208  A    between atoms: _511  and  _514
REMARK  209  A    between atoms: _514  and  _515
REMARK  210  A    between atoms: _519  and  _520
REMARK  211  A    between atoms: _525  and  _527
REMARK  212  A    between atoms: _527  and  _528
REMARK  213  A    between atoms: _527  and  _530
REMARK  214  A    between atoms: _533  and  _535
REMARK  215  A    between atoms: _535  and  _536
REMARK  216  A    between atoms: _535  and  _538
REMARK  217  A    between atoms: _538  and  _539
REMARK  218  A    between atoms: _544  and  _546
REMARK  219  A    between atoms: _546  and  _547
REMARK  220  A    between atoms: _546  and  _549
REMARK  221  A    between atoms: _549  and  _550
REMARK  222  A    between atoms: _553  and  _555
REMARK  223  A    between atoms: _555  and  _556
REMARK  224  A    between atoms: _555  and  _558
REMARK  225  A    between atoms: _558  and  _559
REMARK  226  A    between atoms: _562  and  _564
REMARK  227  A    between atoms: _564  and  _565
REMARK  228  A    between atoms: _567  and  _569
REMARK  229  A    between atoms: _569  and  _570
REMARK  230  A    between atoms: _569  and  _572
REMARK  231  A    between atoms: _572  and  _573
REMARK  232  A    between atoms: _573  and  _574
REMARK  233  A    between atoms: _574  and  _575
REMARK                            x       y       z     vdW  Elec       q    Type
REMARK                         _______ _______ _______ _____ _____    ______ ____
ROOT
ATOM      1  O   HOH     1       8.907  21.959  16.651  0.00  0.00    +0.000 OA
ENDROOT
TORSDOF 0
REMARK  Name = ../refined-set-2016/3cyx/3cyx_pocket.pdb
REMARK  233 active torsions:
REMARK  status: ('A' for Active; 'I' for Inactive)
REMARK    1  A    between atoms: _1  and  _3
REMARK    2  A    between atoms: _3  and  _4
REMARK    3  A    between atoms: _3  and  _6
REMARK    4  A    between atoms: _6  and  _7
REMARK    5  A    between atoms: _7  and  _8
REMARK    6  A    between atoms: _8  and  _9
REMARK    7  A    between atoms: _18  and  _20
REMARK    8  A    between atoms: _20  and  _21
REMARK    9  A    between atoms: _20  and  _23
REMARK   10  A    between atoms: _23  and  _24
REMARK   11  A    between atoms: _27  and  _29
REMARK   12  A    between atoms: _29  and  _30
REMARK   13  A    between atoms: _29  and  _32
REMARK   14  A    between atoms: _32  and  _33
REMARK   15  A    between atoms: _36  and  _38
REMARK   16  A    between atoms: _38  and  _39
REMARK   17  A    between atoms: _38  and  _41
REMARK   18  A    between atoms: _41  and  _42
REMARK   19  A    between atoms: _45  and  _47
REMARK   20  A    between atoms: _47  and  _48
REMARK   21  A    between atoms: _47  and  _50
REMARK   22  A    between atoms: _50  and  _51
REMARK   23  A    between atoms: _54  and  _56
REMARK   24  A    between atoms: _56  and  _57
REMARK   25  A    between atoms: _59  and  _61
REMARK   26  A    between atoms: _61  and  _62
REMARK   27  A    between atoms: _65  and  _67
REMARK   28  A    between atoms: _67  and  _68
REMARK   29  A    between atoms: _67  and  _70
REMARK   30  A    between atoms: _70  and  _71
REMARK   31  A    between atoms: _74  and  _76
REMARK   32  A    between atoms: _76  and  _77
REMARK   33  A    between atoms: _76  and  _79
REMARK   34  A    between atoms: _79  and  _80
REMARK   35  A    between atoms: _83  and  _85
REMARK   36  A    between atoms: _85  and  _86
REMARK   37  A    between atoms: _85  and  _88
REMARK   38  A    between atoms: _88  and  _89
REMARK   39  A    between atoms: _92  and  _94
REMARK   40  A    between atoms: _94  and  _95
REMARK   41  A    between atoms: _94  and  _97
REMARK   42  A    between atoms: _100  and  _102
REMARK   43  A    between atoms: _102  and  _103
REMARK   44  A    between atoms: _102  and  _105
REMARK   45  A    between atoms: _105  and  _106
REMARK   46  A    between atoms: _106  and  _107
REMARK   47  A    between atoms: _107  and  _108
REMARK   48  A    between atoms: _108  and  _109
REMARK   49  A    between atoms: _113  and  _115
REMARK   50  A    between atoms: _115  and  _116
REMARK   51  A    between atoms: _115  and  _118
REMARK   52  A    between atoms: _118  and  _119
REMARK   53  A    between atoms: _119  and  _120
REMARK   54  A    between atoms: _122  and  _124
REMARK   55  A    between atoms: _124  and  _125
REMARK   56  A    between atoms: _124  and  _127
REMARK   57  A    between atoms: _127  and  _128
REMARK   58  A    between atoms: _131  and  _133
REMARK   59  A    between atoms: _133  and  _134
REMARK   60  A    between atoms: _136  and  _138
REMARK   61  A    between atoms: _138  and  _139
REMARK   62  A    between atoms: _141  and  _143
REMARK   63  A    between atoms: _143  and  _144
REMARK   64  A    between atoms: _143  and  _146
REMARK   65  A    between atoms: _149  and  _151
REMARK   66  A    between atoms: _151  and  _152
REMARK   67  A    between atoms: _154  and  _156
REMARK   68  A    between atoms: _156  and  _157
REMARK   69  A    between atoms: _159  and  _161
REMARK   70  A    between atoms: _161  and  _162
REMARK   71  A    between atoms: _161  and  _164
REMARK   72  A    between atoms: _164  and  _165
REMARK   73  A    between atoms: _171  and  _173
REMARK   74  A    between atoms: _173  and  _174
REMARK   75  A    between atoms: _173  and  _176
REMARK   76  A    between atoms: _176  and  _177
REMARK   77  A    between atoms: _180  and  _182
REMARK   78  A    between atoms: _182  and  _183
REMARK   79  A    between atoms: _182  and  _185
REMARK   80  A    between atoms: _188  and  _190
REMARK   81  A    between atoms: _190  and  _191
REMARK   82  A    between atoms: _190  and  _193
REMARK   83  A    between atoms: _193  and  _194
REMARK   84  A    between atoms: _198  and  _199
REMARK   85  A    between atoms: _204  and  _206
REMARK   86  A    between atoms: _206  and  _207
REMARK   87  A    between atoms: _206  and  _209
REMARK   88  A    between atoms: _209  and  _210
REMARK   89  A    between atoms: _214  and  _215
REMARK   90  A    between atoms: _220  and  _222
REMARK   91  A    between atoms: _222  and  _223
REMARK   92  A    between atoms: _222  and  _225
REMARK   93  A    between atoms: _228  and  _230
REMARK   94  A    between atoms: _230  and  _231
REMARK   95  A    between atoms: _230  and  _233
REMARK   96  A    between atoms: _233  and  _234
REMARK   97  A    between atoms: _239  and  _241
REMARK   98  A    between atoms: _241  and  _242
REMARK   99  A    between atoms: _241  and  _244
REMARK  100  A    between atoms: _244  and  _245
REMARK  101  A    between atoms: _248  and  _250
REMARK  102  A    between atoms: _250  and  _251
REMARK  103  A    between atoms: _250  and  _253
REMARK  104  A    between atoms: _253  and  _254
REMARK  105  A    between atoms: _257  and  _259
REMARK  106  A    between atoms: _259  and  _260
REMARK  107  A    between atoms: _262  and  _264
REMARK  108  A    between atoms: _264  and  _265
REMARK  109  A    between atoms: _264  and  _267
REMARK  110  A    between atoms: _267  and  _268
REMARK  111  A    between atoms: _268  and  _269
REMARK  112  A    between atoms: _269  and  _270
REMARK  113  A    between atoms: _279  and  _281
REMARK  114  A    between atoms: _281  and  _282
REMARK  115  A    between atoms: _281  and  _284
REMARK  116  A    between atoms: _284  and  _285
REMARK  117  A    between atoms: _290  and  _292
REMARK  118  A    between atoms: _292  and  _293
REMARK  119  A    between atoms: _292  and  _295
REMARK  120  A    between atoms: _295  and  _296
REMARK  121  A    between atoms: _296  and  _297
REMARK  122  A    between atoms: _297  and  _298
REMARK  123  A    between atoms: _308  and  _309
REMARK  124  A    between atoms: _314  and  _316
REMARK  125  A    between atoms: _316  and  _317
REMARK  126  A    between atoms: _316  and  _319
REMARK  127  A    between atoms: _319  and  _320
REMARK  128  A    between atoms: _323  and  _325
REMARK  129  A    between atoms: _325  and  _326
REMARK  130  A    between atoms: _325  and  _328
REMARK  131  A    between atoms: _328  and  _329
REMARK  132  A    between atoms: _332  and  _334
REMARK  133  A    between atoms: _334  and  _335
REMARK  134  A    between atoms: _334  and  _337
REMARK  135  A    between atoms: _337  and  _338
REMARK  136  A    between atoms: _341  and  _343
REMARK  137  A    between atoms: _343  and  _344
REMARK  138  A    between atoms: _343  and  _346
REMARK  139  A    between atoms: _346  and  _347
REMARK  140  A    between atoms: _350  and  _352
REMARK  141  A    between atoms: _352  and  _353
REMARK  142  A    between atoms: _352  and  _355
REMARK  143  A    between atoms: _355  and  _356
REMARK  144  A    between atoms: _359  and  _361
REMARK  145  A    between atoms: _361  and  _362
REMARK  146  A    between atoms: _364  and  _366
REMARK  147  A    between atoms: _366  and  _367
REMARK  148  A    between atoms: _370  and  _372
REMARK  149  A    between atoms: _372  and  _373
REMARK  150  A    between atoms: _372  and  _375
REMARK  151  A    between atoms: _375  and  _376
REMARK  152  A    between atoms: _379  and  _381
REMARK  153  A    between atoms: _381  and  _382
REMARK  154  A    between atoms: _381  and  _384
REMARK  155  A    between atoms: _384  and  _385
REMARK  156  A    between atoms: _388  and  _390
REMARK  157  A    between atoms: _390  and  _391
REMARK  158  A    between atoms: _390  and  _393
REMARK  159  A    between atoms: _393  and  _394
REMARK  160  A    between atoms: _397  and  _399
REMARK  161  A    between atoms: _399  and  _400
REMARK  162  A    between atoms: _399  and  _402
REMARK  163  A    between atoms: _405  and  _407
REMARK  164  A    between atoms: _407  and  _408
REMARK  165  A    between atoms: _407  and  _410
REMARK  166  A    between atoms: _410  and  _411
REMARK  167  A    between atoms: _411  and  _412
REMARK  168  A    between atoms: _412  and  _413
REMARK  169  A    between atoms: _413  and  _414
REMARK  170  A    between atoms: _418  and  _420
REMARK  171  A    between atoms: _420  and  _421
REMARK  172  A    between atoms: _420  and  _423
REMARK  173  A    between atoms: _423  and  _424
REMARK  174  A    between atoms: _424  and  _425
REMARK  175  A    between atoms: _427  and  _429
REMARK  176  A    between atoms: _429  and  _430
REMARK  177  A    between atoms: _429  and  _432
REMARK  178  A    between atoms: _432  and  _433
REMARK  179  A    between atoms: _436  and  _438
REMARK  180  A    between atoms: _438  and  _439
REMARK  181  A    between atoms: _441  and  _443
REMARK  182  A    between atoms: _443  and  _444
REMARK  183  A    between atoms: _446  and  _448
REMARK  184  A    between atoms: _448  and  _449
REMARK  185  A    between atoms: _448  and  _451
REMARK  186  A    between atoms: _454  and  _456
REMARK  187  A    between atoms: _456  and  _457
REMARK  188  A    between atoms: _459  and  _461
REMARK  189  A    between atoms: _461  and  _462
REMARK  190  A    between atoms: _464  and  _466
REMARK  191  A    between atoms: _466  and  _467
REMARK  192  A    between atoms: _466  and  _469
REMARK  193  A    between atoms: _469  and  _470
REMARK  194  A    between atoms: _476  and  _478
REMARK  195  A    between atoms: _478  and  _479
REMARK  196  A    between atoms: _478  and  _481
REMARK  197  A    between atoms: _481  and  _482
REMARK  198  A    between atoms: _485  and  _487
REMARK  199  A    between atoms: _487  and  _488
REMARK  200  A    between atoms: _487  and  _490
REMARK  201  A    between atoms: _493  and  _495
REMARK  202  A    between atoms: _495  and  _496
REMARK  203  A    between atoms: _495  and  _498
REMARK  204  A    between atoms: _498  and  _499
REMARK  205  A    between atoms: _503  and  _504
REMARK  206  A    between atoms: _509  and  _511
REMARK  207  A    between atoms: _511  and  _512
REMARK  208  A    between atoms: _511  and  _514
REMARK  209  A    between atoms: _514  and  _515
REMARK  210  A    between atoms: _519  and  _520
REMARK  211  A    between atoms: _525  and  _527
REMARK  212  A    between atoms: _527  and  _528
REMARK  213  A    between atoms: _527  and  _530
REMARK  214  A    between atoms: _533  and  _535
REMARK  215  A    between atoms: _535  and  _536
REMARK  216  A    between atoms: _535  and  _538
REMARK  217  A    between atoms: _538  and  _539
REMARK  218  A    between atoms: _544  and  _546
REMARK  219  A    between atoms: _546  and  _547
REMARK  220  A    between atoms: _546  and  _549
REMARK  221  A    between atoms: _549  and  _550
REMARK  222  A    between atoms: _553  and  _555
REMARK  223  A    between atoms: _555  and  _556
REMARK  224  A    between atoms: _555  and  _558
REMARK  225  A    between atoms: _558  and  _559
REMARK  226  A    between atoms: _562  and  _564
REMARK  227  A    between atoms: _564  and  _565
REMARK  228  A    between atoms: _567  and  _569
REMARK  229  A    between atoms: _569  and  _570
REMARK  230  A    between atoms: _569  and  _572
REMARK  231  A    between atoms: _572  and  _573
REMARK  232  A    between atoms: _573  and  _574
REMARK  233  A    between atoms: _574  and  _575
REMARK                            x       y       z     vdW  Elec       q    Type
REMARK                         _______ _______ _______ _____ _____    ______ ____
ROOT
ATOM      1  O   HOH     1      15.850  15.602  12.230  0.00  0.00    +0.000 OA
ENDROOT
TORSDOF 0
REMARK  Name = ../refined-set-2016/3cyx/3cyx_pocket.pdb
REMARK  233 active torsions:
REMARK  status: ('A' for Active; 'I' for Inactive)
REMARK    1  A    between atoms: _1  and  _3
REMARK    2  A    between atoms: _3  and  _4
REMARK    3  A    between atoms: _3  and  _6
REMARK    4  A    between atoms: _6  and  _7
REMARK    5  A    between atoms: _7  and  _8
REMARK    6  A    between atoms: _8  and  _9
REMARK    7  A    between atoms: _18  and  _20
REMARK    8  A    between atoms: _20  and  _21
REMARK    9  A    between atoms: _20  and  _23
REMARK   10  A    between atoms: _23  and  _24
REMARK   11  A    between atoms: _27  and  _29
REMARK   12  A    between atoms: _29  and  _30
REMARK   13  A    between atoms: _29  and  _32
REMARK   14  A    between atoms: _32  and  _33
REMARK   15  A    between atoms: _36  and  _38
REMARK   16  A    between atoms: _38  and  _39
REMARK   17  A    between atoms: _38  and  _41
REMARK   18  A    between atoms: _41  and  _42
REMARK   19  A    between atoms: _45  and  _47
REMARK   20  A    between atoms: _47  and  _48
REMARK   21  A    between atoms: _47  and  _50
REMARK   22  A    between atoms: _50  and  _51
REMARK   23  A    between atoms: _54  and  _56
REMARK   24  A    between atoms: _56  and  _57
REMARK   25  A    between atoms: _59  and  _61
REMARK   26  A    between atoms: _61  and  _62
REMARK   27  A    between atoms: _65  and  _67
REMARK   28  A    between atoms: _67  and  _68
REMARK   29  A    between atoms: _67  and  _70
REMARK   30  A    between atoms: _70  and  _71
REMARK   31  A    between atoms: _74  and  _76
REMARK   32  A    between atoms: _76  and  _77
REMARK   33  A    between atoms: _76  and  _79
REMARK   34  A    between atoms: _79  and  _80
REMARK   35  A    between atoms: _83  and  _85
REMARK   36  A    between atoms: _85  and  _86
REMARK   37  A    between atoms: _85  and  _88
REMARK   38  A    between atoms: _88  and  _89
REMARK   39  A    between atoms: _92  and  _94
REMARK   40  A    between atoms: _94  and  _95
REMARK   41  A    between atoms: _94  and  _97
REMARK   42  A    between atoms: _100  and  _102
REMARK   43  A    between atoms: _102  and  _103
REMARK   44  A    between atoms: _102  and  _105
REMARK   45  A    between atoms: _105  and  _106
REMARK   46  A    between atoms: _106  and  _107
REMARK   47  A    between atoms: _107  and  _108
REMARK   48  A    between atoms: _108  and  _109
REMARK   49  A    between atoms: _113  and  _115
REMARK   50  A    between atoms: _115  and  _116
REMARK   51  A    between atoms: _115  and  _118
REMARK   52  A    between atoms: _118  and  _119
REMARK   53  A    between atoms: _119  and  _120
REMARK   54  A    between atoms: _122  and  _124
REMARK   55  A    between atoms: _124  and  _125
REMARK   56  A    between atoms: _124  and  _127
REMARK   57  A    between atoms: _127  and  _128
REMARK   58  A    between atoms: _131  and  _133
REMARK   59  A    between atoms: _133  and  _134
REMARK   60  A    between atoms: _136  and  _138
REMARK   61  A    between atoms: _138  and  _139
REMARK   62  A    between atoms: _141  and  _143
REMARK   63  A    between atoms: _143  and  _144
REMARK   64  A    between atoms: _143  and  _146
REMARK   65  A    between atoms: _149  and  _151
REMARK   66  A    between atoms: _151  and  _152
REMARK   67  A    between atoms: _154  and  _156
REMARK   68  A    between atoms: _156  and  _157
REMARK   69  A    between atoms: _159  and  _161
REMARK   70  A    between atoms: _161  and  _162
REMARK   71  A    between atoms: _161  and  _164
REMARK   72  A    between atoms: _164  and  _165
REMARK   73  A    between atoms: _171  and  _173
REMARK   74  A    between atoms: _173  and  _174
REMARK   75  A    between atoms: _173  and  _176
REMARK   76  A    between atoms: _176  and  _177
REMARK   77  A    between atoms: _180  and  _182
REMARK   78  A    between atoms: _182  and  _183
REMARK   79  A    between atoms: _182  and  _185
REMARK   80  A    between atoms: _188  and  _190
REMARK   81  A    between atoms: _190  and  _191
REMARK   82  A    between atoms: _190  and  _193
REMARK   83  A    between atoms: _193  and  _194
REMARK   84  A    between atoms: _198  and  _199
REMARK   85  A    between atoms: _204  and  _206
REMARK   86  A    between atoms: _206  and  _207
REMARK   87  A    between atoms: _206  and  _209
REMARK   88  A    between atoms: _209  and  _210
REMARK   89  A    between atoms: _214  and  _215
REMARK   90  A    between atoms: _220  and  _222
REMARK   91  A    between atoms: _222  and  _223
REMARK   92  A    between atoms: _222  and  _225
REMARK   93  A    between atoms: _228  and  _230
REMARK   94  A    between atoms: _230  and  _231
REMARK   95  A    between atoms: _230  and  _233
REMARK   96  A    between atoms: _233  and  _234
REMARK   97  A    between atoms: _239  and  _241
REMARK   98  A    between atoms: _241  and  _242
REMARK   99  A    between atoms: _241  and  _244
REMARK  100  A    between atoms: _244  and  _245
REMARK  101  A    between atoms: _248  and  _250
REMARK  102  A    between atoms: _250  and  _251
REMARK  103  A    between atoms: _250  and  _253
REMARK  104  A    between atoms: _253  and  _254
REMARK  105  A    between atoms: _257  and  _259
REMARK  106  A    between atoms: _259  and  _260
REMARK  107  A    between atoms: _262  and  _264
REMARK  108  A    between atoms: _264  and  _265
REMARK  109  A    between atoms: _264  and  _267
REMARK  110  A    between atoms: _267  and  _268
REMARK  111  A    between atoms: _268  and  _269
REMARK  112  A    between atoms: _269  and  _270
REMARK  113  A    between atoms: _279  and  _281
REMARK  114  A    between atoms: _281  and  _282
REMARK  115  A    between atoms: _281  and  _284
REMARK  116  A    between atoms: _284  and  _285
REMARK  117  A    between atoms: _290  and  _292
REMARK  118  A    between atoms: _292  and  _293
REMARK  119  A    between atoms: _292  and  _295
REMARK  120  A    between atoms: _295  and  _296
REMARK  121  A    between atoms: _296  and  _297
REMARK  122  A    between atoms: _297  and  _298
REMARK  123  A    between atoms: _308  and  _309
REMARK  124  A    between atoms: _314  and  _316
REMARK  125  A    between atoms: _316  and  _317
REMARK  126  A    between atoms: _316  and  _319
REMARK  127  A    between atoms: _319  and  _320
REMARK  128  A    between atoms: _323  and  _325
REMARK  129  A    between atoms: _325  and  _326
REMARK  130  A    between atoms: _325  and  _328
REMARK  131  A    between atoms: _328  and  _329
REMARK  132  A    between atoms: _332  and  _334
REMARK  133  A    between atoms: _334  and  _335
REMARK  134  A    between atoms: _334  and  _337
REMARK  135  A    between atoms: _337  and  _338
REMARK  136  A    between atoms: _341  and  _343
REMARK  137  A    between atoms: _343  and  _344
REMARK  138  A    between atoms: _343  and  _346
REMARK  139  A    between atoms: _346  and  _347
REMARK  140  A    between atoms: _350  and  _352
REMARK  141  A    between atoms: _352  and  _353
REMARK  142  A    between atoms: _352  and  _355
REMARK  143  A    between atoms: _355  and  _356
REMARK  144  A    between atoms: _359  and  _361
REMARK  145  A    between atoms: _361  and  _362
REMARK  146  A    between atoms: _364  and  _366
REMARK  147  A    between atoms: _366  and  _367
REMARK  148  A    between atoms: _370  and  _372
REMARK  149  A    between atoms: _372  and  _373
REMARK  150  A    between atoms: _372  and  _375
REMARK  151  A    between atoms: _375  and  _376
REMARK  152  A    between atoms: _379  and  _381
REMARK  153  A    between atoms: _381  and  _382
REMARK  154  A    between atoms: _381  and  _384
REMARK  155  A    between atoms: _384  and  _385
REMARK  156  A    between atoms: _388  and  _390
REMARK  157  A    between atoms: _390  and  _391
REMARK  158  A    between atoms: _390  and  _393
REMARK  159  A    between atoms: _393  and  _394
REMARK  160  A    between atoms: _397  and  _399
REMARK  161  A    between atoms: _399  and  _400
REMARK  162  A    between atoms: _399  and  _402
REMARK  163  A    between atoms: _405  and  _407
REMARK  164  A    between atoms: _407  and  _408
REMARK  165  A    between atoms: _407  and  _410
REMARK  166  A    between atoms: _410  and  _411
REMARK  167  A    between atoms: _411  and  _412
REMARK  168  A    between atoms: _412  and  _413
REMARK  169  A    between atoms: _413  and  _414
REMARK  170  A    between atoms: _418  and  _420
REMARK  171  A    between atoms: _420  and  _421
REMARK  172  A    between atoms: _420  and  _423
REMARK  173  A    between atoms: _423  and  _424
REMARK  174  A    between atoms: _424  and  _425
REMARK  175  A    between atoms: _427  and  _429
REMARK  176  A    between atoms: _429  and  _430
REMARK  177  A    between atoms: _429  and  _432
REMARK  178  A    between atoms: _432  and  _433
REMARK  179  A    between atoms: _436  and  _438
REMARK  180  A    between atoms: _438  and  _439
REMARK  181  A    between atoms: _441  and  _443
REMARK  182  A    between atoms: _443  and  _444
REMARK  183  A    between atoms: _446  and  _448
REMARK  184  A    between atoms: _448  and  _449
REMARK  185  A    between atoms: _448  and  _451
REMARK  186  A    between atoms: _454  and  _456
REMARK  187  A    between atoms: _456  and  _457
REMARK  188  A    between atoms: _459  and  _461
REMARK  189  A    between atoms: _461  and  _462
REMARK  190  A    between atoms: _464  and  _466
REMARK  191  A    between atoms: _466  and  _467
REMARK  192  A    between atoms: _466  and  _469
REMARK  193  A    between atoms: _469  and  _470
REMARK  194  A    between atoms: _476  and  _478
REMARK  195  A    between atoms: _478  and  _479
REMARK  196  A    between atoms: _478  and  _481
REMARK  197  A    between atoms: _481  and  _482
REMARK  198  A    between atoms: _485  and  _487
REMARK  199  A    between atoms: _487  and  _488
REMARK  200  A    between atoms: _487  and  _490
REMARK  201  A    between atoms: _493  and  _495
REMARK  202  A    between atoms: _495  and  _496
REMARK  203  A    between atoms: _495  and  _498
REMARK  204  A    between atoms: _498  and  _499
REMARK  205  A    between atoms: _503  and  _504
REMARK  206  A    between atoms: _509  and  _511
REMARK  207  A    between atoms: _511  and  _512
REMARK  208  A    between atoms: _511  and  _514
REMARK  209  A    between atoms: _514  and  _515
REMARK  210  A    between atoms: _519  and  _520
REMARK  211  A    between atoms: _525  and  _527
REMARK  212  A    between atoms: _527  and  _528
REMARK  213  A    between atoms: _527  and  _530
REMARK  214  A    between atoms: _533  and  _535
REMARK  215  A    between atoms: _535  and  _536
REMARK  216  A    between atoms: _535  and  _538
REMARK  217  A    between atoms: _538  and  _539
REMARK  218  A    between atoms: _544  and  _546
REMARK  219  A    between atoms: _546  and  _547
REMARK  220  A    between atoms: _546  and  _549
REMARK  221  A    between atoms: _549  and  _550
REMARK  222  A    between atoms: _553  and  _555
REMARK  223  A    between atoms: _555  and  _556
REMARK  224  A    between atoms: _555  and  _558
REMARK  225  A    between atoms: _558  and  _559
REMARK  226  A    between atoms: _562  and  _564
REMARK  227  A    between atoms: _564  and  _565
REMARK  228  A    between atoms: _567  and  _569
REMARK  229  A    between atoms: _569  and  _570
REMARK  230  A    between atoms: _569  and  _572
REMARK  231  A    between atoms: _572  and  _573
REMARK  232  A    between atoms: _573  and  _574
REMARK  233  A    between atoms: _574  and  _575
REMARK                            x       y       z     vdW  Elec       q    Type
REMARK                         _______ _______ _______ _____ _____    ______ ____
ROOT
ATOM      1  O   HOH     1      19.513  16.857   9.539  0.00  0.00    +0.000 OA
ENDROOT
TORSDOF 0
REMARK  Name = ../refined-set-2016/3cyx/3cyx_pocket.pdb
REMARK  233 active torsions:
REMARK  status: ('A' for Active; 'I' for Inactive)
REMARK    1  A    between atoms: _1  and  _3
REMARK    2  A    between atoms: _3  and  _4
REMARK    3  A    between atoms: _3  and  _6
REMARK    4  A    between atoms: _6  and  _7
REMARK    5  A    between atoms: _7  and  _8
REMARK    6  A    between atoms: _8  and  _9
REMARK    7  A    between atoms: _18  and  _20
REMARK    8  A    between atoms: _20  and  _21
REMARK    9  A    between atoms: _20  and  _23
REMARK   10  A    between atoms: _23  and  _24
REMARK   11  A    between atoms: _27  and  _29
REMARK   12  A    between atoms: _29  and  _30
REMARK   13  A    between atoms: _29  and  _32
REMARK   14  A    between atoms: _32  and  _33
REMARK   15  A    between atoms: _36  and  _38
REMARK   16  A    between atoms: _38  and  _39
REMARK   17  A    between atoms: _38  and  _41
REMARK   18  A    between atoms: _41  and  _42
REMARK   19  A    between atoms: _45  and  _47
REMARK   20  A    between atoms: _47  and  _48
REMARK   21  A    between atoms: _47  and  _50
REMARK   22  A    between atoms: _50  and  _51
REMARK   23  A    between atoms: _54  and  _56
REMARK   24  A    between atoms: _56  and  _57
REMARK   25  A    between atoms: _59  and  _61
REMARK   26  A    between atoms: _61  and  _62
REMARK   27  A    between atoms: _65  and  _67
REMARK   28  A    between atoms: _67  and  _68
REMARK   29  A    between atoms: _67  and  _70
REMARK   30  A    between atoms: _70  and  _71
REMARK   31  A    between atoms: _74  and  _76
REMARK   32  A    between atoms: _76  and  _77
REMARK   33  A    between atoms: _76  and  _79
REMARK   34  A    between atoms: _79  and  _80
REMARK   35  A    between atoms: _83  and  _85
REMARK   36  A    between atoms: _85  and  _86
REMARK   37  A    between atoms: _85  and  _88
REMARK   38  A    between atoms: _88  and  _89
REMARK   39  A    between atoms: _92  and  _94
REMARK   40  A    between atoms: _94  and  _95
REMARK   41  A    between atoms: _94  and  _97
REMARK   42  A    between atoms: _100  and  _102
REMARK   43  A    between atoms: _102  and  _103
REMARK   44  A    between atoms: _102  and  _105
REMARK   45  A    between atoms: _105  and  _106
REMARK   46  A    between atoms: _106  and  _107
REMARK   47  A    between atoms: _107  and  _108
REMARK   48  A    between atoms: _108  and  _109
REMARK   49  A    between atoms: _113  and  _115
REMARK   50  A    between atoms: _115  and  _116
REMARK   51  A    between atoms: _115  and  _118
REMARK   52  A    between atoms: _118  and  _119
REMARK   53  A    between atoms: _119  and  _120
REMARK   54  A    between atoms: _122  and  _124
REMARK   55  A    between atoms: _124  and  _125
REMARK   56  A    between atoms: _124  and  _127
REMARK   57  A    between atoms: _127  and  _128
REMARK   58  A    between atoms: _131  and  _133
REMARK   59  A    between atoms: _133  and  _134
REMARK   60  A    between atoms: _136  and  _138
REMARK   61  A    between atoms: _138  and  _139
REMARK   62  A    between atoms: _141  and  _143
REMARK   63  A    between atoms: _143  and  _144
REMARK   64  A    between atoms: _143  and  _146
REMARK   65  A    between atoms: _149  and  _151
REMARK   66  A    between atoms: _151  and  _152
REMARK   67  A    between atoms: _154  and  _156
REMARK   68  A    between atoms: _156  and  _157
REMARK   69  A    between atoms: _159  and  _161
REMARK   70  A    between atoms: _161  and  _162
REMARK   71  A    between atoms: _161  and  _164
REMARK   72  A    between atoms: _164  and  _165
REMARK   73  A    between atoms: _171  and  _173
REMARK   74  A    between atoms: _173  and  _174
REMARK   75  A    between atoms: _173  and  _176
REMARK   76  A    between atoms: _176  and  _177
REMARK   77  A    between atoms: _180  and  _182
REMARK   78  A    between atoms: _182  and  _183
REMARK   79  A    between atoms: _182  and  _185
REMARK   80  A    between atoms: _188  and  _190
REMARK   81  A    between atoms: _190  and  _191
REMARK   82  A    between atoms: _190  and  _193
REMARK   83  A    between atoms: _193  and  _194
REMARK   84  A    between atoms: _198  and  _199
REMARK   85  A    between atoms: _204  and  _206
REMARK   86  A    between atoms: _206  and  _207
REMARK   87  A    between atoms: _206  and  _209
REMARK   88  A    between atoms: _209  and  _210
REMARK   89  A    between atoms: _214  and  _215
REMARK   90  A    between atoms: _220  and  _222
REMARK   91  A    between atoms: _222  and  _223
REMARK   92  A    between atoms: _222  and  _225
REMARK   93  A    between atoms: _228  and  _230
REMARK   94  A    between atoms: _230  and  _231
REMARK   95  A    between atoms: _230  and  _233
REMARK   96  A    between atoms: _233  and  _234
REMARK   97  A    between atoms: _239  and  _241
REMARK   98  A    between atoms: _241  and  _242
REMARK   99  A    between atoms: _241  and  _244
REMARK  100  A    between atoms: _244  and  _245
REMARK  101  A    between atoms: _248  and  _250
REMARK  102  A    between atoms: _250  and  _251
REMARK  103  A    between atoms: _250  and  _253
REMARK  104  A    between atoms: _253  and  _254
REMARK  105  A    between atoms: _257  and  _259
REMARK  106  A    between atoms: _259  and  _260
REMARK  107  A    between atoms: _262  and  _264
REMARK  108  A    between atoms: _264  and  _265
REMARK  109  A    between atoms: _264  and  _267
REMARK  110  A    between atoms: _267  and  _268
REMARK  111  A    between atoms: _268  and  _269
REMARK  112  A    between atoms: _269  and  _270
REMARK  113  A    between atoms: _279  and  _281
REMARK  114  A    between atoms: _281  and  _282
REMARK  115  A    between atoms: _281  and  _284
REMARK  116  A    between atoms: _284  and  _285
REMARK  117  A    between atoms: _290  and  _292
REMARK  118  A    between atoms: _292  and  _293
REMARK  119  A    between atoms: _292  and  _295
REMARK  120  A    between atoms: _295  and  _296
REMARK  121  A    between atoms: _296  and  _297
REMARK  122  A    between atoms: _297  and  _298
REMARK  123  A    between atoms: _308  and  _309
REMARK  124  A    between atoms: _314  and  _316
REMARK  125  A    between atoms: _316  and  _317
REMARK  126  A    between atoms: _316  and  _319
REMARK  127  A    between atoms: _319  and  _320
REMARK  128  A    between atoms: _323  and  _325
REMARK  129  A    between atoms: _325  and  _326
REMARK  130  A    between atoms: _325  and  _328
REMARK  131  A    between atoms: _328  and  _329
REMARK  132  A    between atoms: _332  and  _334
REMARK  133  A    between atoms: _334  and  _335
REMARK  134  A    between atoms: _334  and  _337
REMARK  135  A    between atoms: _337  and  _338
REMARK  136  A    between atoms: _341  and  _343
REMARK  137  A    between atoms: _343  and  _344
REMARK  138  A    between atoms: _343  and  _346
REMARK  139  A    between atoms: _346  and  _347
REMARK  140  A    between atoms: _350  and  _352
REMARK  141  A    between atoms: _352  and  _353
REMARK  142  A    between atoms: _352  and  _355
REMARK  143  A    between atoms: _355  and  _356
REMARK  144  A    between atoms: _359  and  _361
REMARK  145  A    between atoms: _361  and  _362
REMARK  146  A    between atoms: _364  and  _366
REMARK  147  A    between atoms: _366  and  _367
REMARK  148  A    between atoms: _370  and  _372
REMARK  149  A    between atoms: _372  and  _373
REMARK  150  A    between atoms: _372  and  _375
REMARK  151  A    between atoms: _375  and  _376
REMARK  152  A    between atoms: _379  and  _381
REMARK  153  A    between atoms: _381  and  _382
REMARK  154  A    between atoms: _381  and  _384
REMARK  155  A    between atoms: _384  and  _385
REMARK  156  A    between atoms: _388  and  _390
REMARK  157  A    between atoms: _390  and  _391
REMARK  158  A    between atoms: _390  and  _393
REMARK  159  A    between atoms: _393  and  _394
REMARK  160  A    between atoms: _397  and  _399
REMARK  161  A    between atoms: _399  and  _400
REMARK  162  A    between atoms: _399  and  _402
REMARK  163  A    between atoms: _405  and  _407
REMARK  164  A    between atoms: _407  and  _408
REMARK  165  A    between atoms: _407  and  _410
REMARK  166  A    between atoms: _410  and  _411
REMARK  167  A    between atoms: _411  and  _412
REMARK  168  A    between atoms: _412  and  _413
REMARK  169  A    between atoms: _413  and  _414
REMARK  170  A    between atoms: _418  and  _420
REMARK  171  A    between atoms: _420  and  _421
REMARK  172  A    between atoms: _420  and  _423
REMARK  173  A    between atoms: _423  and  _424
REMARK  174  A    between atoms: _424  and  _425
REMARK  175  A    between atoms: _427  and  _429
REMARK  176  A    between atoms: _429  and  _430
REMARK  177  A    between atoms: _429  and  _432
REMARK  178  A    between atoms: _432  and  _433
REMARK  179  A    between atoms: _436  and  _438
REMARK  180  A    between atoms: _438  and  _439
REMARK  181  A    between atoms: _441  and  _443
REMARK  182  A    between atoms: _443  and  _444
REMARK  183  A    between atoms: _446  and  _448
REMARK  184  A    between atoms: _448  and  _449
REMARK  185  A    between atoms: _448  and  _451
REMARK  186  A    between atoms: _454  and  _456
REMARK  187  A    between atoms: _456  and  _457
REMARK  188  A    between atoms: _459  and  _461
REMARK  189  A    between atoms: _461  and  _462
REMARK  190  A    between atoms: _464  and  _466
REMARK  191  A    between atoms: _466  and  _467
REMARK  192  A    between atoms: _466  and  _469
REMARK  193  A    between atoms: _469  and  _470
REMARK  194  A    between atoms: _476  and  _478
REMARK  195  A    between atoms: _478  and  _479
REMARK  196  A    between atoms: _478  and  _481
REMARK  197  A    between atoms: _481  and  _482
REMARK  198  A    between atoms: _485  and  _487
REMARK  199  A    between atoms: _487  and  _488
REMARK  200  A    between atoms: _487  and  _490
REMARK  201  A    between atoms: _493  and  _495
REMARK  202  A    between atoms: _495  and  _496
REMARK  203  A    between atoms: _495  and  _498
REMARK  204  A    between atoms: _498  and  _499
REMARK  205  A    between atoms: _503  and  _504
REMARK  206  A    between atoms: _509  and  _511
REMARK  207  A    between atoms: _511  and  _512
REMARK  208  A    between atoms: _511  and  _514
REMARK  209  A    between atoms: _514  and  _515
REMARK  210  A    between atoms: _519  and  _520
REMARK  211  A    between atoms: _525  and  _527
REMARK  212  A    between atoms: _527  and  _528
REMARK  213  A    between atoms: _527  and  _530
REMARK  214  A    between atoms: _533  and  _535
REMARK  215  A    between atoms: _535  and  _536
REMARK  216  A    between atoms: _535  and  _538
REMARK  217  A    between atoms: _538  and  _539
REMARK  218  A    between atoms: _544  and  _546
REMARK  219  A    between atoms: _546  and  _547
REMARK  220  A    between atoms: _546  and  _549
REMARK  221  A    between atoms: _549  and  _550
REMARK  222  A    between atoms: _553  and  _555
REMARK  223  A    between atoms: _555  and  _556
REMARK  224  A    between atoms: _555  and  _558
REMARK  225  A    between atoms: _558  and  _559
REMARK  226  A    between atoms: _562  and  _564
REMARK  227  A    between atoms: _564  and  _565
REMARK  228  A    between atoms: _567  and  _569
REMARK  229  A    between atoms: _569  and  _570
REMARK  230  A    between atoms: _569  and  _572
REMARK  231  A    between atoms: _572  and  _573
REMARK  232  A    between atoms: _573  and  _574
REMARK  233  A    between atoms: _574  and  _575
REMARK                            x       y       z     vdW  Elec       q    Type
REMARK                         _______ _______ _______ _____ _____    ______ ____
ROOT
ATOM      1  O   HOH     1      11.224  14.727  16.940  0.00  0.00    +0.000 OA
ENDROOT
TORSDOF 0
REMARK  Name = ../refined-set-2016/3cyx/3cyx_pocket.pdb
REMARK  233 active torsions:
REMARK  status: ('A' for Active; 'I' for Inactive)
REMARK    1  A    between atoms: _1  and  _3
REMARK    2  A    between atoms: _3  and  _4
REMARK    3  A    between atoms: _3  and  _6
REMARK    4  A    between atoms: _6  and  _7
REMARK    5  A    between atoms: _7  and  _8
REMARK    6  A    between atoms: _8  and  _9
REMARK    7  A    between atoms: _18  and  _20
REMARK    8  A    between atoms: _20  and  _21
REMARK    9  A    between atoms: _20  and  _23
REMARK   10  A    between atoms: _23  and  _24
REMARK   11  A    between atoms: _27  and  _29
REMARK   12  A    between atoms: _29  and  _30
REMARK   13  A    between atoms: _29  and  _32
REMARK   14  A    between atoms: _32  and  _33
REMARK   15  A    between atoms: _36  and  _38
REMARK   16  A    between atoms: _38  and  _39
REMARK   17  A    between atoms: _38  and  _41
REMARK   18  A    between atoms: _41  and  _42
REMARK   19  A    between atoms: _45  and  _47
REMARK   20  A    between atoms: _47  and  _48
REMARK   21  A    between atoms: _47  and  _50
REMARK   22  A    between atoms: _50  and  _51
REMARK   23  A    between atoms: _54  and  _56
REMARK   24  A    between atoms: _56  and  _57
REMARK   25  A    between atoms: _59  and  _61
REMARK   26  A    between atoms: _61  and  _62
REMARK   27  A    between atoms: _65  and  _67
REMARK   28  A    between atoms: _67  and  _68
REMARK   29  A    between atoms: _67  and  _70
REMARK   30  A    between atoms: _70  and  _71
REMARK   31  A    between atoms: _74  and  _76
REMARK   32  A    between atoms: _76  and  _77
REMARK   33  A    between atoms: _76  and  _79
REMARK   34  A    between atoms: _79  and  _80
REMARK   35  A    between atoms: _83  and  _85
REMARK   36  A    between atoms: _85  and  _86
REMARK   37  A    between atoms: _85  and  _88
REMARK   38  A    between atoms: _88  and  _89
REMARK   39  A    between atoms: _92  and  _94
REMARK   40  A    between atoms: _94  and  _95
REMARK   41  A    between atoms: _94  and  _97
REMARK   42  A    between atoms: _100  and  _102
REMARK   43  A    between atoms: _102  and  _103
REMARK   44  A    between atoms: _102  and  _105
REMARK   45  A    between atoms: _105  and  _106
REMARK   46  A    between atoms: _106  and  _107
REMARK   47  A    between atoms: _107  and  _108
REMARK   48  A    between atoms: _108  and  _109
REMARK   49  A    between atoms: _113  and  _115
REMARK   50  A    between atoms: _115  and  _116
REMARK   51  A    between atoms: _115  and  _118
REMARK   52  A    between atoms: _118  and  _119
REMARK   53  A    between atoms: _119  and  _120
REMARK   54  A    between atoms: _122  and  _124
REMARK   55  A    between atoms: _124  and  _125
REMARK   56  A    between atoms: _124  and  _127
REMARK   57  A    between atoms: _127  and  _128
REMARK   58  A    between atoms: _131  and  _133
REMARK   59  A    between atoms: _133  and  _134
REMARK   60  A    between atoms: _136  and  _138
REMARK   61  A    between atoms: _138  and  _139
REMARK   62  A    between atoms: _141  and  _143
REMARK   63  A    between atoms: _143  and  _144
REMARK   64  A    between atoms: _143  and  _146
REMARK   65  A    between atoms: _149  and  _151
REMARK   66  A    between atoms: _151  and  _152
REMARK   67  A    between atoms: _154  and  _156
REMARK   68  A    between atoms: _156  and  _157
REMARK   69  A    between atoms: _159  and  _161
REMARK   70  A    between atoms: _161  and  _162
REMARK   71  A    between atoms: _161  and  _164
REMARK   72  A    between atoms: _164  and  _165
REMARK   73  A    between atoms: _171  and  _173
REMARK   74  A    between atoms: _173  and  _174
REMARK   75  A    between atoms: _173  and  _176
REMARK   76  A    between atoms: _176  and  _177
REMARK   77  A    between atoms: _180  and  _182
REMARK   78  A    between atoms: _182  and  _183
REMARK   79  A    between atoms: _182  and  _185
REMARK   80  A    between atoms: _188  and  _190
REMARK   81  A    between atoms: _190  and  _191
REMARK   82  A    between atoms: _190  and  _193
REMARK   83  A    between atoms: _193  and  _194
REMARK   84  A    between atoms: _198  and  _199
REMARK   85  A    between atoms: _204  and  _206
REMARK   86  A    between atoms: _206  and  _207
REMARK   87  A    between atoms: _206  and  _209
REMARK   88  A    between atoms: _209  and  _210
REMARK   89  A    between atoms: _214  and  _215
REMARK   90  A    between atoms: _220  and  _222
REMARK   91  A    between atoms: _222  and  _223
REMARK   92  A    between atoms: _222  and  _225
REMARK   93  A    between atoms: _228  and  _230
REMARK   94  A    between atoms: _230  and  _231
REMARK   95  A    between atoms: _230  and  _233
REMARK   96  A    between atoms: _233  and  _234
REMARK   97  A    between atoms: _239  and  _241
REMARK   98  A    between atoms: _241  and  _242
REMARK   99  A    between atoms: _241  and  _244
REMARK  100  A    between atoms: _244  and  _245
REMARK  101  A    between atoms: _248  and  _250
REMARK  102  A    between atoms: _250  and  _251
REMARK  103  A    between atoms: _250  and  _253
REMARK  104  A    between atoms: _253  and  _254
REMARK  105  A    between atoms: _257  and  _259
REMARK  106  A    between atoms: _259  and  _260
REMARK  107  A    between atoms: _262  and  _264
REMARK  108  A    between atoms: _264  and  _265
REMARK  109  A    between atoms: _264  and  _267
REMARK  110  A    between atoms: _267  and  _268
REMARK  111  A    between atoms: _268  and  _269
REMARK  112  A    between atoms: _269  and  _270
REMARK  113  A    between atoms: _279  and  _281
REMARK  114  A    between atoms: _281  and  _282
REMARK  115  A    between atoms: _281  and  _284
REMARK  116  A    between atoms: _284  and  _285
REMARK  117  A    between atoms: _290  and  _292
REMARK  118  A    between atoms: _292  and  _293
REMARK  119  A    between atoms: _292  and  _295
REMARK  120  A    between atoms: _295  and  _296
REMARK  121  A    between atoms: _296  and  _297
REMARK  122  A    between atoms: _297  and  _298
REMARK  123  A    between atoms: _308  and  _309
REMARK  124  A    between atoms: _314  and  _316
REMARK  125  A    between atoms: _316  and  _317
REMARK  126  A    between atoms: _316  and  _319
REMARK  127  A    between atoms: _319  and  _320
REMARK  128  A    between atoms: _323  and  _325
REMARK  129  A    between atoms: _325  and  _326
REMARK  130  A    between atoms: _325  and  _328
REMARK  131  A    between atoms: _328  and  _329
REMARK  132  A    between atoms: _332  and  _334
REMARK  133  A    between atoms: _334  and  _335
REMARK  134  A    between atoms: _334  and  _337
REMARK  135  A    between atoms: _337  and  _338
REMARK  136  A    between atoms: _341  and  _343
REMARK  137  A    between atoms: _343  and  _344
REMARK  138  A    between atoms: _343  and  _346
REMARK  139  A    between atoms: _346  and  _347
REMARK  140  A    between atoms: _350  and  _352
REMARK  141  A    between atoms: _352  and  _353
REMARK  142  A    between atoms: _352  and  _355
REMARK  143  A    between atoms: _355  and  _356
REMARK  144  A    between atoms: _359  and  _361
REMARK  145  A    between atoms: _361  and  _362
REMARK  146  A    between atoms: _364  and  _366
REMARK  147  A    between atoms: _366  and  _367
REMARK  148  A    between atoms: _370  and  _372
REMARK  149  A    between atoms: _372  and  _373
REMARK  150  A    between atoms: _372  and  _375
REMARK  151  A    between atoms: _375  and  _376
REMARK  152  A    between atoms: _379  and  _381
REMARK  153  A    between atoms: _381  and  _382
REMARK  154  A    between atoms: _381  and  _384
REMARK  155  A    between atoms: _384  and  _385
REMARK  156  A    between atoms: _388  and  _390
REMARK  157  A    between atoms: _390  and  _391
REMARK  158  A    between atoms: _390  and  _393
REMARK  159  A    between atoms: _393  and  _394
REMARK  160  A    between atoms: _397  and  _399
REMARK  161  A    between atoms: _399  and  _400
REMARK  162  A    between atoms: _399  and  _402
REMARK  163  A    between atoms: _405  and  _407
REMARK  164  A    between atoms: _407  and  _408
REMARK  165  A    between atoms: _407  and  _410
REMARK  166  A    between atoms: _410  and  _411
REMARK  167  A    between atoms: _411  and  _412
REMARK  168  A    between atoms: _412  and  _413
REMARK  169  A    between atoms: _413  and  _414
REMARK  170  A    between atoms: _418  and  _420
REMARK  171  A    between atoms: _420  and  _421
REMARK  172  A    between atoms: _420  and  _423
REMARK  173  A    between atoms: _423  and  _424
REMARK  174  A    between atoms: _424  and  _425
REMARK  175  A    between atoms: _427  and  _429
REMARK  176  A    between atoms: _429  and  _430
REMARK  177  A    between atoms: _429  and  _432
REMARK  178  A    between atoms: _432  and  _433
REMARK  179  A    between atoms: _436  and  _438
REMARK  180  A    between atoms: _438  and  _439
REMARK  181  A    between atoms: _441  and  _443
REMARK  182  A    between atoms: _443  and  _444
REMARK  183  A    between atoms: _446  and  _448
REMARK  184  A    between atoms: _448  and  _449
REMARK  185  A    between atoms: _448  and  _451
REMARK  186  A    between atoms: _454  and  _456
REMARK  187  A    between atoms: _456  and  _457
REMARK  188  A    between atoms: _459  and  _461
REMARK  189  A    between atoms: _461  and  _462
REMARK  190  A    between atoms: _464  and  _466
REMARK  191  A    between atoms: _466  and  _467
REMARK  192  A    between atoms: _466  and  _469
REMARK  193  A    between atoms: _469  and  _470
REMARK  194  A    between atoms: _476  and  _478
REMARK  195  A    between atoms: _478  and  _479
REMARK  196  A    between atoms: _478  and  _481
REMARK  197  A    between atoms: _481  and  _482
REMARK  198  A    between atoms: _485  and  _487
REMARK  199  A    between atoms: _487  and  _488
REMARK  200  A    between atoms: _487  and  _490
REMARK  201  A    between atoms: _493  and  _495
REMARK  202  A    between atoms: _495  and  _496
REMARK  203  A    between atoms: _495  and  _498
REMARK  204  A    between atoms: _498  and  _499
REMARK  205  A    between atoms: _503  and  _504
REMARK  206  A    between atoms: _509  and  _511
REMARK  207  A    between atoms: _511  and  _512
REMARK  208  A    between atoms: _511  and  _514
REMARK  209  A    between atoms: _514  and  _515
REMARK  210  A    between atoms: _519  and  _520
REMARK  211  A    between atoms: _525  and  _527
REMARK  212  A    between atoms: _527  and  _528
REMARK  213  A    between atoms: _527  and  _530
REMARK  214  A    between atoms: _533  and  _535
REMARK  215  A    between atoms: _535  and  _536
REMARK  216  A    between atoms: _535  and  _538
REMARK  217  A    between atoms: _538  and  _539
REMARK  218  A    between atoms: _544  and  _546
REMARK  219  A    between atoms: _546  and  _547
REMARK  220  A    between atoms: _546  and  _549
REMARK  221  A    between atoms: _549  and  _550
REMARK  222  A    between atoms: _553  and  _555
REMARK  223  A    between atoms: _555  and  _556
REMARK  224  A    between atoms: _555  and  _558
REMARK  225  A    between atoms: _558  and  _559
REMARK  226  A    between atoms: _562  and  _564
REMARK  227  A    between atoms: _564  and  _565
REMARK  228  A    between atoms: _567  and  _569
REMARK  229  A    between atoms: _569  and  _570
REMARK  230  A    between atoms: _569  and  _572
REMARK  231  A    between atoms: _572  and  _573
REMARK  232  A    between atoms: _573  and  _574
REMARK  233  A    between atoms: _574  and  _575
REMARK                            x       y       z     vdW  Elec       q    Type
REMARK                         _______ _______ _______ _____ _____    ______ ____
ROOT
ATOM      1  O   HOH     1      26.746  22.675  24.871  0.00  0.00    +0.000 OA
ENDROOT
TORSDOF 0
REMARK  Name = ../refined-set-2016/3cyx/3cyx_pocket.pdb
REMARK  233 active torsions:
REMARK  status: ('A' for Active; 'I' for Inactive)
REMARK    1  A    between atoms: _1  and  _3
REMARK    2  A    between atoms: _3  and  _4
REMARK    3  A    between atoms: _3  and  _6
REMARK    4  A    between atoms: _6  and  _7
REMARK    5  A    between atoms: _7  and  _8
REMARK    6  A    between atoms: _8  and  _9
REMARK    7  A    between atoms: _18  and  _20
REMARK    8  A    between atoms: _20  and  _21
REMARK    9  A    between atoms: _20  and  _23
REMARK   10  A    between atoms: _23  and  _24
REMARK   11  A    between atoms: _27  and  _29
REMARK   12  A    between atoms: _29  and  _30
REMARK   13  A    between atoms: _29  and  _32
REMARK   14  A    between atoms: _32  and  _33
REMARK   15  A    between atoms: _36  and  _38
REMARK   16  A    between atoms: _38  and  _39
REMARK   17  A    between atoms: _38  and  _41
REMARK   18  A    between atoms: _41  and  _42
REMARK   19  A    between atoms: _45  and  _47
REMARK   20  A    between atoms: _47  and  _48
REMARK   21  A    between atoms: _47  and  _50
REMARK   22  A    between atoms: _50  and  _51
REMARK   23  A    between atoms: _54  and  _56
REMARK   24  A    between atoms: _56  and  _57
REMARK   25  A    between atoms: _59  and  _61
REMARK   26  A    between atoms: _61  and  _62
REMARK   27  A    between atoms: _65  and  _67
REMARK   28  A    between atoms: _67  and  _68
REMARK   29  A    between atoms: _67  and  _70
REMARK   30  A    between atoms: _70  and  _71
REMARK   31  A    between atoms: _74  and  _76
REMARK   32  A    between atoms: _76  and  _77
REMARK   33  A    between atoms: _76  and  _79
REMARK   34  A    between atoms: _79  and  _80
REMARK   35  A    between atoms: _83  and  _85
REMARK   36  A    between atoms: _85  and  _86
REMARK   37  A    between atoms: _85  and  _88
REMARK   38  A    between atoms: _88  and  _89
REMARK   39  A    between atoms: _92  and  _94
REMARK   40  A    between atoms: _94  and  _95
REMARK   41  A    between atoms: _94  and  _97
REMARK   42  A    between atoms: _100  and  _102
REMARK   43  A    between atoms: _102  and  _103
REMARK   44  A    between atoms: _102  and  _105
REMARK   45  A    between atoms: _105  and  _106
REMARK   46  A    between atoms: _106  and  _107
REMARK   47  A    between atoms: _107  and  _108
REMARK   48  A    between atoms: _108  and  _109
REMARK   49  A    between atoms: _113  and  _115
REMARK   50  A    between atoms: _115  and  _116
REMARK   51  A    between atoms: _115  and  _118
REMARK   52  A    between atoms: _118  and  _119
REMARK   53  A    between atoms: _119  and  _120
REMARK   54  A    between atoms: _122  and  _124
REMARK   55  A    between atoms: _124  and  _125
REMARK   56  A    between atoms: _124  and  _127
REMARK   57  A    between atoms: _127  and  _128
REMARK   58  A    between atoms: _131  and  _133
REMARK   59  A    between atoms: _133  and  _134
REMARK   60  A    between atoms: _136  and  _138
REMARK   61  A    between atoms: _138  and  _139
REMARK   62  A    between atoms: _141  and  _143
REMARK   63  A    between atoms: _143  and  _144
REMARK   64  A    between atoms: _143  and  _146
REMARK   65  A    between atoms: _149  and  _151
REMARK   66  A    between atoms: _151  and  _152
REMARK   67  A    between atoms: _154  and  _156
REMARK   68  A    between atoms: _156  and  _157
REMARK   69  A    between atoms: _159  and  _161
REMARK   70  A    between atoms: _161  and  _162
REMARK   71  A    between atoms: _161  and  _164
REMARK   72  A    between atoms: _164  and  _165
REMARK   73  A    between atoms: _171  and  _173
REMARK   74  A    between atoms: _173  and  _174
REMARK   75  A    between atoms: _173  and  _176
REMARK   76  A    between atoms: _176  and  _177
REMARK   77  A    between atoms: _180  and  _182
REMARK   78  A    between atoms: _182  and  _183
REMARK   79  A    between atoms: _182  and  _185
REMARK   80  A    between atoms: _188  and  _190
REMARK   81  A    between atoms: _190  and  _191
REMARK   82  A    between atoms: _190  and  _193
REMARK   83  A    between atoms: _193  and  _194
REMARK   84  A    between atoms: _198  and  _199
REMARK   85  A    between atoms: _204  and  _206
REMARK   86  A    between atoms: _206  and  _207
REMARK   87  A    between atoms: _206  and  _209
REMARK   88  A    between atoms: _209  and  _210
REMARK   89  A    between atoms: _214  and  _215
REMARK   90  A    between atoms: _220  and  _222
REMARK   91  A    between atoms: _222  and  _223
REMARK   92  A    between atoms: _222  and  _225
REMARK   93  A    between atoms: _228  and  _230
REMARK   94  A    between atoms: _230  and  _231
REMARK   95  A    between atoms: _230  and  _233
REMARK   96  A    between atoms: _233  and  _234
REMARK   97  A    between atoms: _239  and  _241
REMARK   98  A    between atoms: _241  and  _242
REMARK   99  A    between atoms: _241  and  _244
REMARK  100  A    between atoms: _244  and  _245
REMARK  101  A    between atoms: _248  and  _250
REMARK  102  A    between atoms: _250  and  _251
REMARK  103  A    between atoms: _250  and  _253
REMARK  104  A    between atoms: _253  and  _254
REMARK  105  A    between atoms: _257  and  _259
REMARK  106  A    between atoms: _259  and  _260
REMARK  107  A    between atoms: _262  and  _264
REMARK  108  A    between atoms: _264  and  _265
REMARK  109  A    between atoms: _264  and  _267
REMARK  110  A    between atoms: _267  and  _268
REMARK  111  A    between atoms: _268  and  _269
REMARK  112  A    between atoms: _269  and  _270
REMARK  113  A    between atoms: _279  and  _281
REMARK  114  A    between atoms: _281  and  _282
REMARK  115  A    between atoms: _281  and  _284
REMARK  116  A    between atoms: _284  and  _285
REMARK  117  A    between atoms: _290  and  _292
REMARK  118  A    between atoms: _292  and  _293
REMARK  119  A    between atoms: _292  and  _295
REMARK  120  A    between atoms: _295  and  _296
REMARK  121  A    between atoms: _296  and  _297
REMARK  122  A    between atoms: _297  and  _298
REMARK  123  A    between atoms: _308  and  _309
REMARK  124  A    between atoms: _314  and  _316
REMARK  125  A    between atoms: _316  and  _317
REMARK  126  A    between atoms: _316  and  _319
REMARK  127  A    between atoms: _319  and  _320
REMARK  128  A    between atoms: _323  and  _325
REMARK  129  A    between atoms: _325  and  _326
REMARK  130  A    between atoms: _325  and  _328
REMARK  131  A    between atoms: _328  and  _329
REMARK  132  A    between atoms: _332  and  _334
REMARK  133  A    between atoms: _334  and  _335
REMARK  134  A    between atoms: _334  and  _337
REMARK  135  A    between atoms: _337  and  _338
REMARK  136  A    between atoms: _341  and  _343
REMARK  137  A    between atoms: _343  and  _344
REMARK  138  A    between atoms: _343  and  _346
REMARK  139  A    between atoms: _346  and  _347
REMARK  140  A    between atoms: _350  and  _352
REMARK  141  A    between atoms: _352  and  _353
REMARK  142  A    between atoms: _352  and  _355
REMARK  143  A    between atoms: _355  and  _356
REMARK  144  A    between atoms: _359  and  _361
REMARK  145  A    between atoms: _361  and  _362
REMARK  146  A    between atoms: _364  and  _366
REMARK  147  A    between atoms: _366  and  _367
REMARK  148  A    between atoms: _370  and  _372
REMARK  149  A    between atoms: _372  and  _373
REMARK  150  A    between atoms: _372  and  _375
REMARK  151  A    between atoms: _375  and  _376
REMARK  152  A    between atoms: _379  and  _381
REMARK  153  A    between atoms: _381  and  _382
REMARK  154  A    between atoms: _381  and  _384
REMARK  155  A    between atoms: _384  and  _385
REMARK  156  A    between atoms: _388  and  _390
REMARK  157  A    between atoms: _390  and  _391
REMARK  158  A    between atoms: _390  and  _393
REMARK  159  A    between atoms: _393  and  _394
REMARK  160  A    between atoms: _397  and  _399
REMARK  161  A    between atoms: _399  and  _400
REMARK  162  A    between atoms: _399  and  _402
REMARK  163  A    between atoms: _405  and  _407
REMARK  164  A    between atoms: _407  and  _408
REMARK  165  A    between atoms: _407  and  _410
REMARK  166  A    between atoms: _410  and  _411
REMARK  167  A    between atoms: _411  and  _412
REMARK  168  A    between atoms: _412  and  _413
REMARK  169  A    between atoms: _413  and  _414
REMARK  170  A    between atoms: _418  and  _420
REMARK  171  A    between atoms: _420  and  _421
REMARK  172  A    between atoms: _420  and  _423
REMARK  173  A    between atoms: _423  and  _424
REMARK  174  A    between atoms: _424  and  _425
REMARK  175  A    between atoms: _427  and  _429
REMARK  176  A    between atoms: _429  and  _430
REMARK  177  A    between atoms: _429  and  _432
REMARK  178  A    between atoms: _432  and  _433
REMARK  179  A    between atoms: _436  and  _438
REMARK  180  A    between atoms: _438  and  _439
REMARK  181  A    between atoms: _441  and  _443
REMARK  182  A    between atoms: _443  and  _444
REMARK  183  A    between atoms: _446  and  _448
REMARK  184  A    between atoms: _448  and  _449
REMARK  185  A    between atoms: _448  and  _451
REMARK  186  A    between atoms: _454  and  _456
REMARK  187  A    between atoms: _456  and  _457
REMARK  188  A    between atoms: _459  and  _461
REMARK  189  A    between atoms: _461  and  _462
REMARK  190  A    between atoms: _464  and  _466
REMARK  191  A    between atoms: _466  and  _467
REMARK  192  A    between atoms: _466  and  _469
REMARK  193  A    between atoms: _469  and  _470
REMARK  194  A    between atoms: _476  and  _478
REMARK  195  A    between atoms: _478  and  _479
REMARK  196  A    between atoms: _478  and  _481
REMARK  197  A    between atoms: _481  and  _482
REMARK  198  A    between atoms: _485  and  _487
REMARK  199  A    between atoms: _487  and  _488
REMARK  200  A    between atoms: _487  and  _490
REMARK  201  A    between atoms: _493  and  _495
REMARK  202  A    between atoms: _495  and  _496
REMARK  203  A    between atoms: _495  and  _498
REMARK  204  A    between atoms: _498  and  _499
REMARK  205  A    between atoms: _503  and  _504
REMARK  206  A    between atoms: _509  and  _511
REMARK  207  A    between atoms: _511  and  _512
REMARK  208  A    between atoms: _511  and  _514
REMARK  209  A    between atoms: _514  and  _515
REMARK  210  A    between atoms: _519  and  _520
REMARK  211  A    between atoms: _525  and  _527
REMARK  212  A    between atoms: _527  and  _528
REMARK  213  A    between atoms: _527  and  _530
REMARK  214  A    between atoms: _533  and  _535
REMARK  215  A    between atoms: _535  and  _536
REMARK  216  A    between atoms: _535  and  _538
REMARK  217  A    between atoms: _538  and  _539
REMARK  218  A    between atoms: _544  and  _546
REMARK  219  A    between atoms: _546  and  _547
REMARK  220  A    between atoms: _546  and  _549
REMARK  221  A    between atoms: _549  and  _550
REMARK  222  A    between atoms: _553  and  _555
REMARK  223  A    between atoms: _555  and  _556
REMARK  224  A    between atoms: _555  and  _558
REMARK  225  A    between atoms: _558  and  _559
REMARK  226  A    between atoms: _562  and  _564
REMARK  227  A    between atoms: _564  and  _565
REMARK  228  A    between atoms: _567  and  _569
REMARK  229  A    between atoms: _569  and  _570
REMARK  230  A    between atoms: _569  and  _572
REMARK  231  A    between atoms: _572  and  _573
REMARK  232  A    between atoms: _573  and  _574
REMARK  233  A    between atoms: _574  and  _575
REMARK                            x       y       z     vdW  Elec       q    Type
REMARK                         _______ _______ _______ _____ _____    ______ ____
ROOT
ATOM      1  O   HOH     1      23.128  26.087  28.412  0.00  0.00    +0.000 OA
ENDROOT
TORSDOF 0
REMARK  Name = ../refined-set-2016/3cyx/3cyx_pocket.pdb
REMARK  233 active torsions:
REMARK  status: ('A' for Active; 'I' for Inactive)
REMARK    1  A    between atoms: _1  and  _3
REMARK    2  A    between atoms: _3  and  _4
REMARK    3  A    between atoms: _3  and  _6
REMARK    4  A    between atoms: _6  and  _7
REMARK    5  A    between atoms: _7  and  _8
REMARK    6  A    between atoms: _8  and  _9
REMARK    7  A    between atoms: _18  and  _20
REMARK    8  A    between atoms: _20  and  _21
REMARK    9  A    between atoms: _20  and  _23
REMARK   10  A    between atoms: _23  and  _24
REMARK   11  A    between atoms: _27  and  _29
REMARK   12  A    between atoms: _29  and  _30
REMARK   13  A    between atoms: _29  and  _32
REMARK   14  A    between atoms: _32  and  _33
REMARK   15  A    between atoms: _36  and  _38
REMARK   16  A    between atoms: _38  and  _39
REMARK   17  A    between atoms: _38  and  _41
REMARK   18  A    between atoms: _41  and  _42
REMARK   19  A    between atoms: _45  and  _47
REMARK   20  A    between atoms: _47  and  _48
REMARK   21  A    between atoms: _47  and  _50
REMARK   22  A    between atoms: _50  and  _51
REMARK   23  A    between atoms: _54  and  _56
REMARK   24  A    between atoms: _56  and  _57
REMARK   25  A    between atoms: _59  and  _61
REMARK   26  A    between atoms: _61  and  _62
REMARK   27  A    between atoms: _65  and  _67
REMARK   28  A    between atoms: _67  and  _68
REMARK   29  A    between atoms: _67  and  _70
REMARK   30  A    between atoms: _70  and  _71
REMARK   31  A    between atoms: _74  and  _76
REMARK   32  A    between atoms: _76  and  _77
REMARK   33  A    between atoms: _76  and  _79
REMARK   34  A    between atoms: _79  and  _80
REMARK   35  A    between atoms: _83  and  _85
REMARK   36  A    between atoms: _85  and  _86
REMARK   37  A    between atoms: _85  and  _88
REMARK   38  A    between atoms: _88  and  _89
REMARK   39  A    between atoms: _92  and  _94
REMARK   40  A    between atoms: _94  and  _95
REMARK   41  A    between atoms: _94  and  _97
REMARK   42  A    between atoms: _100  and  _102
REMARK   43  A    between atoms: _102  and  _103
REMARK   44  A    between atoms: _102  and  _105
REMARK   45  A    between atoms: _105  and  _106
REMARK   46  A    between atoms: _106  and  _107
REMARK   47  A    between atoms: _107  and  _108
REMARK   48  A    between atoms: _108  and  _109
REMARK   49  A    between atoms: _113  and  _115
REMARK   50  A    between atoms: _115  and  _116
REMARK   51  A    between atoms: _115  and  _118
REMARK   52  A    between atoms: _118  and  _119
REMARK   53  A    between atoms: _119  and  _120
REMARK   54  A    between atoms: _122  and  _124
REMARK   55  A    between atoms: _124  and  _125
REMARK   56  A    between atoms: _124  and  _127
REMARK   57  A    between atoms: _127  and  _128
REMARK   58  A    between atoms: _131  and  _133
REMARK   59  A    between atoms: _133  and  _134
REMARK   60  A    between atoms: _136  and  _138
REMARK   61  A    between atoms: _138  and  _139
REMARK   62  A    between atoms: _141  and  _143
REMARK   63  A    between atoms: _143  and  _144
REMARK   64  A    between atoms: _143  and  _146
REMARK   65  A    between atoms: _149  and  _151
REMARK   66  A    between atoms: _151  and  _152
REMARK   67  A    between atoms: _154  and  _156
REMARK   68  A    between atoms: _156  and  _157
REMARK   69  A    between atoms: _159  and  _161
REMARK   70  A    between atoms: _161  and  _162
REMARK   71  A    between atoms: _161  and  _164
REMARK   72  A    between atoms: _164  and  _165
REMARK   73  A    between atoms: _171  and  _173
REMARK   74  A    between atoms: _173  and  _174
REMARK   75  A    between atoms: _173  and  _176
REMARK   76  A    between atoms: _176  and  _177
REMARK   77  A    between atoms: _180  and  _182
REMARK   78  A    between atoms: _182  and  _183
REMARK   79  A    between atoms: _182  and  _185
REMARK   80  A    between atoms: _188  and  _190
REMARK   81  A    between atoms: _190  and  _191
REMARK   82  A    between atoms: _190  and  _193
REMARK   83  A    between atoms: _193  and  _194
REMARK   84  A    between atoms: _198  and  _199
REMARK   85  A    between atoms: _204  and  _206
REMARK   86  A    between atoms: _206  and  _207
REMARK   87  A    between atoms: _206  and  _209
REMARK   88  A    between atoms: _209  and  _210
REMARK   89  A    between atoms: _214  and  _215
REMARK   90  A    between atoms: _220  and  _222
REMARK   91  A    between atoms: _222  and  _223
REMARK   92  A    between atoms: _222  and  _225
REMARK   93  A    between atoms: _228  and  _230
REMARK   94  A    between atoms: _230  and  _231
REMARK   95  A    between atoms: _230  and  _233
REMARK   96  A    between atoms: _233  and  _234
REMARK   97  A    between atoms: _239  and  _241
REMARK   98  A    between atoms: _241  and  _242
REMARK   99  A    between atoms: _241  and  _244
REMARK  100  A    between atoms: _244  and  _245
REMARK  101  A    between atoms: _248  and  _250
REMARK  102  A    between atoms: _250  and  _251
REMARK  103  A    between atoms: _250  and  _253
REMARK  104  A    between atoms: _253  and  _254
REMARK  105  A    between atoms: _257  and  _259
REMARK  106  A    between atoms: _259  and  _260
REMARK  107  A    between atoms: _262  and  _264
REMARK  108  A    between atoms: _264  and  _265
REMARK  109  A    between atoms: _264  and  _267
REMARK  110  A    between atoms: _267  and  _268
REMARK  111  A    between atoms: _268  and  _269
REMARK  112  A    between atoms: _269  and  _270
REMARK  113  A    between atoms: _279  and  _281
REMARK  114  A    between atoms: _281  and  _282
REMARK  115  A    between atoms: _281  and  _284
REMARK  116  A    between atoms: _284  and  _285
REMARK  117  A    between atoms: _290  and  _292
REMARK  118  A    between atoms: _292  and  _293
REMARK  119  A    between atoms: _292  and  _295
REMARK  120  A    between atoms: _295  and  _296
REMARK  121  A    between atoms: _296  and  _297
REMARK  122  A    between atoms: _297  and  _298
REMARK  123  A    between atoms: _308  and  _309
REMARK  124  A    between atoms: _314  and  _316
REMARK  125  A    between atoms: _316  and  _317
REMARK  126  A    between atoms: _316  and  _319
REMARK  127  A    between atoms: _319  and  _320
REMARK  128  A    between atoms: _323  and  _325
REMARK  129  A    between atoms: _325  and  _326
REMARK  130  A    between atoms: _325  and  _328
REMARK  131  A    between atoms: _328  and  _329
REMARK  132  A    between atoms: _332  and  _334
REMARK  133  A    between atoms: _334  and  _335
REMARK  134  A    between atoms: _334  and  _337
REMARK  135  A    between atoms: _337  and  _338
REMARK  136  A    between atoms: _341  and  _343
REMARK  137  A    between atoms: _343  and  _344
REMARK  138  A    between atoms: _343  and  _346
REMARK  139  A    between atoms: _346  and  _347
REMARK  140  A    between atoms: _350  and  _352
REMARK  141  A    between atoms: _352  and  _353
REMARK  142  A    between atoms: _352  and  _355
REMARK  143  A    between atoms: _355  and  _356
REMARK  144  A    between atoms: _359  and  _361
REMARK  145  A    between atoms: _361  and  _362
REMARK  146  A    between atoms: _364  and  _366
REMARK  147  A    between atoms: _366  and  _367
REMARK  148  A    between atoms: _370  and  _372
REMARK  149  A    between atoms: _372  and  _373
REMARK  150  A    between atoms: _372  and  _375
REMARK  151  A    between atoms: _375  and  _376
REMARK  152  A    between atoms: _379  and  _381
REMARK  153  A    between atoms: _381  and  _382
REMARK  154  A    between atoms: _381  and  _384
REMARK  155  A    between atoms: _384  and  _385
REMARK  156  A    between atoms: _388  and  _390
REMARK  157  A    between atoms: _390  and  _391
REMARK  158  A    between atoms: _390  and  _393
REMARK  159  A    between atoms: _393  and  _394
REMARK  160  A    between atoms: _397  and  _399
REMARK  161  A    between atoms: _399  and  _400
REMARK  162  A    between atoms: _399  and  _402
REMARK  163  A    between atoms: _405  and  _407
REMARK  164  A    between atoms: _407  and  _408
REMARK  165  A    between atoms: _407  and  _410
REMARK  166  A    between atoms: _410  and  _411
REMARK  167  A    between atoms: _411  and  _412
REMARK  168  A    between atoms: _412  and  _413
REMARK  169  A    between atoms: _413  and  _414
REMARK  170  A    between atoms: _418  and  _420
REMARK  171  A    between atoms: _420  and  _421
REMARK  172  A    between atoms: _420  and  _423
REMARK  173  A    between atoms: _423  and  _424
REMARK  174  A    between atoms: _424  and  _425
REMARK  175  A    between atoms: _427  and  _429
REMARK  176  A    between atoms: _429  and  _430
REMARK  177  A    between atoms: _429  and  _432
REMARK  178  A    between atoms: _432  and  _433
REMARK  179  A    between atoms: _436  and  _438
REMARK  180  A    between atoms: _438  and  _439
REMARK  181  A    between atoms: _441  and  _443
REMARK  182  A    between atoms: _443  and  _444
REMARK  183  A    between atoms: _446  and  _448
REMARK  184  A    between atoms: _448  and  _449
REMARK  185  A    between atoms: _448  and  _451
REMARK  186  A    between atoms: _454  and  _456
REMARK  187  A    between atoms: _456  and  _457
REMARK  188  A    between atoms: _459  and  _461
REMARK  189  A    between atoms: _461  and  _462
REMARK  190  A    between atoms: _464  and  _466
REMARK  191  A    between atoms: _466  and  _467
REMARK  192  A    between atoms: _466  and  _469
REMARK  193  A    between atoms: _469  and  _470
REMARK  194  A    between atoms: _476  and  _478
REMARK  195  A    between atoms: _478  and  _479
REMARK  196  A    between atoms: _478  and  _481
REMARK  197  A    between atoms: _481  and  _482
REMARK  198  A    between atoms: _485  and  _487
REMARK  199  A    between atoms: _487  and  _488
REMARK  200  A    between atoms: _487  and  _490
REMARK  201  A    between atoms: _493  and  _495
REMARK  202  A    between atoms: _495  and  _496
REMARK  203  A    between atoms: _495  and  _498
REMARK  204  A    between atoms: _498  and  _499
REMARK  205  A    between atoms: _503  and  _504
REMARK  206  A    between atoms: _509  and  _511
REMARK  207  A    between atoms: _511  and  _512
REMARK  208  A    between atoms: _511  and  _514
REMARK  209  A    between atoms: _514  and  _515
REMARK  210  A    between atoms: _519  and  _520
REMARK  211  A    between atoms: _525  and  _527
REMARK  212  A    between atoms: _527  and  _528
REMARK  213  A    between atoms: _527  and  _530
REMARK  214  A    between atoms: _533  and  _535
REMARK  215  A    between atoms: _535  and  _536
REMARK  216  A    between atoms: _535  and  _538
REMARK  217  A    between atoms: _538  and  _539
REMARK  218  A    between atoms: _544  and  _546
REMARK  219  A    between atoms: _546  and  _547
REMARK  220  A    between atoms: _546  and  _549
REMARK  221  A    between atoms: _549  and  _550
REMARK  222  A    between atoms: _553  and  _555
REMARK  223  A    between atoms: _555  and  _556
REMARK  224  A    between atoms: _555  and  _558
REMARK  225  A    between atoms: _558  and  _559
REMARK  226  A    between atoms: _562  and  _564
REMARK  227  A    between atoms: _564  and  _565
REMARK  228  A    between atoms: _567  and  _569
REMARK  229  A    between atoms: _569  and  _570
REMARK  230  A    between atoms: _569  and  _572
REMARK  231  A    between atoms: _572  and  _573
REMARK  232  A    between atoms: _573  and  _574
REMARK  233  A    between atoms: _574  and  _575
REMARK                            x       y       z     vdW  Elec       q    Type
REMARK                         _______ _______ _______ _____ _____    ______ ____
ROOT
ATOM      1  O   HOH     1      17.256  14.912  10.018  0.00  0.00    +0.000 OA
ENDROOT
TORSDOF 0
REMARK  Name = ../refined-set-2016/3cyx/3cyx_pocket.pdb
REMARK  233 active torsions:
REMARK  status: ('A' for Active; 'I' for Inactive)
REMARK    1  A    between atoms: _1  and  _3
REMARK    2  A    between atoms: _3  and  _4
REMARK    3  A    between atoms: _3  and  _6
REMARK    4  A    between atoms: _6  and  _7
REMARK    5  A    between atoms: _7  and  _8
REMARK    6  A    between atoms: _8  and  _9
REMARK    7  A    between atoms: _18  and  _20
REMARK    8  A    between atoms: _20  and  _21
REMARK    9  A    between atoms: _20  and  _23
REMARK   10  A    between atoms: _23  and  _24
REMARK   11  A    between atoms: _27  and  _29
REMARK   12  A    between atoms: _29  and  _30
REMARK   13  A    between atoms: _29  and  _32
REMARK   14  A    between atoms: _32  and  _33
REMARK   15  A    between atoms: _36  and  _38
REMARK   16  A    between atoms: _38  and  _39
REMARK   17  A    between atoms: _38  and  _41
REMARK   18  A    between atoms: _41  and  _42
REMARK   19  A    between atoms: _45  and  _47
REMARK   20  A    between atoms: _47  and  _48
REMARK   21  A    between atoms: _47  and  _50
REMARK   22  A    between atoms: _50  and  _51
REMARK   23  A    between atoms: _54  and  _56
REMARK   24  A    between atoms: _56  and  _57
REMARK   25  A    between atoms: _59  and  _61
REMARK   26  A    between atoms: _61  and  _62
REMARK   27  A    between atoms: _65  and  _67
REMARK   28  A    between atoms: _67  and  _68
REMARK   29  A    between atoms: _67  and  _70
REMARK   30  A    between atoms: _70  and  _71
REMARK   31  A    between atoms: _74  and  _76
REMARK   32  A    between atoms: _76  and  _77
REMARK   33  A    between atoms: _76  and  _79
REMARK   34  A    between atoms: _79  and  _80
REMARK   35  A    between atoms: _83  and  _85
REMARK   36  A    between atoms: _85  and  _86
REMARK   37  A    between atoms: _85  and  _88
REMARK   38  A    between atoms: _88  and  _89
REMARK   39  A    between atoms: _92  and  _94
REMARK   40  A    between atoms: _94  and  _95
REMARK   41  A    between atoms: _94  and  _97
REMARK   42  A    between atoms: _100  and  _102
REMARK   43  A    between atoms: _102  and  _103
REMARK   44  A    between atoms: _102  and  _105
REMARK   45  A    between atoms: _105  and  _106
REMARK   46  A    between atoms: _106  and  _107
REMARK   47  A    between atoms: _107  and  _108
REMARK   48  A    between atoms: _108  and  _109
REMARK   49  A    between atoms: _113  and  _115
REMARK   50  A    between atoms: _115  and  _116
REMARK   51  A    between atoms: _115  and  _118
REMARK   52  A    between atoms: _118  and  _119
REMARK   53  A    between atoms: _119  and  _120
REMARK   54  A    between atoms: _122  and  _124
REMARK   55  A    between atoms: _124  and  _125
REMARK   56  A    between atoms: _124  and  _127
REMARK   57  A    between atoms: _127  and  _128
REMARK   58  A    between atoms: _131  and  _133
REMARK   59  A    between atoms: _133  and  _134
REMARK   60  A    between atoms: _136  and  _138
REMARK   61  A    between atoms: _138  and  _139
REMARK   62  A    between atoms: _141  and  _143
REMARK   63  A    between atoms: _143  and  _144
REMARK   64  A    between atoms: _143  and  _146
REMARK   65  A    between atoms: _149  and  _151
REMARK   66  A    between atoms: _151  and  _152
REMARK   67  A    between atoms: _154  and  _156
REMARK   68  A    between atoms: _156  and  _157
REMARK   69  A    between atoms: _159  and  _161
REMARK   70  A    between atoms: _161  and  _162
REMARK   71  A    between atoms: _161  and  _164
REMARK   72  A    between atoms: _164  and  _165
REMARK   73  A    between atoms: _171  and  _173
REMARK   74  A    between atoms: _173  and  _174
REMARK   75  A    between atoms: _173  and  _176
REMARK   76  A    between atoms: _176  and  _177
REMARK   77  A    between atoms: _180  and  _182
REMARK   78  A    between atoms: _182  and  _183
REMARK   79  A    between atoms: _182  and  _185
REMARK   80  A    between atoms: _188  and  _190
REMARK   81  A    between atoms: _190  and  _191
REMARK   82  A    between atoms: _190  and  _193
REMARK   83  A    between atoms: _193  and  _194
REMARK   84  A    between atoms: _198  and  _199
REMARK   85  A    between atoms: _204  and  _206
REMARK   86  A    between atoms: _206  and  _207
REMARK   87  A    between atoms: _206  and  _209
REMARK   88  A    between atoms: _209  and  _210
REMARK   89  A    between atoms: _214  and  _215
REMARK   90  A    between atoms: _220  and  _222
REMARK   91  A    between atoms: _222  and  _223
REMARK   92  A    between atoms: _222  and  _225
REMARK   93  A    between atoms: _228  and  _230
REMARK   94  A    between atoms: _230  and  _231
REMARK   95  A    between atoms: _230  and  _233
REMARK   96  A    between atoms: _233  and  _234
REMARK   97  A    between atoms: _239  and  _241
REMARK   98  A    between atoms: _241  and  _242
REMARK   99  A    between atoms: _241  and  _244
REMARK  100  A    between atoms: _244  and  _245
REMARK  101  A    between atoms: _248  and  _250
REMARK  102  A    between atoms: _250  and  _251
REMARK  103  A    between atoms: _250  and  _253
REMARK  104  A    between atoms: _253  and  _254
REMARK  105  A    between atoms: _257  and  _259
REMARK  106  A    between atoms: _259  and  _260
REMARK  107  A    between atoms: _262  and  _264
REMARK  108  A    between atoms: _264  and  _265
REMARK  109  A    between atoms: _264  and  _267
REMARK  110  A    between atoms: _267  and  _268
REMARK  111  A    between atoms: _268  and  _269
REMARK  112  A    between atoms: _269  and  _270
REMARK  113  A    between atoms: _279  and  _281
REMARK  114  A    between atoms: _281  and  _282
REMARK  115  A    between atoms: _281  and  _284
REMARK  116  A    between atoms: _284  and  _285
REMARK  117  A    between atoms: _290  and  _292
REMARK  118  A    between atoms: _292  and  _293
REMARK  119  A    between atoms: _292  and  _295
REMARK  120  A    between atoms: _295  and  _296
REMARK  121  A    between atoms: _296  and  _297
REMARK  122  A    between atoms: _297  and  _298
REMARK  123  A    between atoms: _308  and  _309
REMARK  124  A    between atoms: _314  and  _316
REMARK  125  A    between atoms: _316  and  _317
REMARK  126  A    between atoms: _316  and  _319
REMARK  127  A    between atoms: _319  and  _320
REMARK  128  A    between atoms: _323  and  _325
REMARK  129  A    between atoms: _325  and  _326
REMARK  130  A    between atoms: _325  and  _328
REMARK  131  A    between atoms: _328  and  _329
REMARK  132  A    between atoms: _332  and  _334
REMARK  133  A    between atoms: _334  and  _335
REMARK  134  A    between atoms: _334  and  _337
REMARK  135  A    between atoms: _337  and  _338
REMARK  136  A    between atoms: _341  and  _343
REMARK  137  A    between atoms: _343  and  _344
REMARK  138  A    between atoms: _343  and  _346
REMARK  139  A    between atoms: _346  and  _347
REMARK  140  A    between atoms: _350  and  _352
REMARK  141  A    between atoms: _352  and  _353
REMARK  142  A    between atoms: _352  and  _355
REMARK  143  A    between atoms: _355  and  _356
REMARK  144  A    between atoms: _359  and  _361
REMARK  145  A    between atoms: _361  and  _362
REMARK  146  A    between atoms: _364  and  _366
REMARK  147  A    between atoms: _366  and  _367
REMARK  148  A    between atoms: _370  and  _372
REMARK  149  A    between atoms: _372  and  _373
REMARK  150  A    between atoms: _372  and  _375
REMARK  151  A    between atoms: _375  and  _376
REMARK  152  A    between atoms: _379  and  _381
REMARK  153  A    between atoms: _381  and  _382
REMARK  154  A    between atoms: _381  and  _384
REMARK  155  A    between atoms: _384  and  _385
REMARK  156  A    between atoms: _388  and  _390
REMARK  157  A    between atoms: _390  and  _391
REMARK  158  A    between atoms: _390  and  _393
REMARK  159  A    between atoms: _393  and  _394
REMARK  160  A    between atoms: _397  and  _399
REMARK  161  A    between atoms: _399  and  _400
REMARK  162  A    between atoms: _399  and  _402
REMARK  163  A    between atoms: _405  and  _407
REMARK  164  A    between atoms: _407  and  _408
REMARK  165  A    between atoms: _407  and  _410
REMARK  166  A    between atoms: _410  and  _411
REMARK  167  A    between atoms: _411  and  _412
REMARK  168  A    between atoms: _412  and  _413
REMARK  169  A    between atoms: _413  and  _414
REMARK  170  A    between atoms: _418  and  _420
REMARK  171  A    between atoms: _420  and  _421
REMARK  172  A    between atoms: _420  and  _423
REMARK  173  A    between atoms: _423  and  _424
REMARK  174  A    between atoms: _424  and  _425
REMARK  175  A    between atoms: _427  and  _429
REMARK  176  A    between atoms: _429  and  _430
REMARK  177  A    between atoms: _429  and  _432
REMARK  178  A    between atoms: _432  and  _433
REMARK  179  A    between atoms: _436  and  _438
REMARK  180  A    between atoms: _438  and  _439
REMARK  181  A    between atoms: _441  and  _443
REMARK  182  A    between atoms: _443  and  _444
REMARK  183  A    between atoms: _446  and  _448
REMARK  184  A    between atoms: _448  and  _449
REMARK  185  A    between atoms: _448  and  _451
REMARK  186  A    between atoms: _454  and  _456
REMARK  187  A    between atoms: _456  and  _457
REMARK  188  A    between atoms: _459  and  _461
REMARK  189  A    between atoms: _461  and  _462
REMARK  190  A    between atoms: _464  and  _466
REMARK  191  A    between atoms: _466  and  _467
REMARK  192  A    between atoms: _466  and  _469
REMARK  193  A    between atoms: _469  and  _470
REMARK  194  A    between atoms: _476  and  _478
REMARK  195  A    between atoms: _478  and  _479
REMARK  196  A    between atoms: _478  and  _481
REMARK  197  A    between atoms: _481  and  _482
REMARK  198  A    between atoms: _485  and  _487
REMARK  199  A    between atoms: _487  and  _488
REMARK  200  A    between atoms: _487  and  _490
REMARK  201  A    between atoms: _493  and  _495
REMARK  202  A    between atoms: _495  and  _496
REMARK  203  A    between atoms: _495  and  _498
REMARK  204  A    between atoms: _498  and  _499
REMARK  205  A    between atoms: _503  and  _504
REMARK  206  A    between atoms: _509  and  _511
REMARK  207  A    between atoms: _511  and  _512
REMARK  208  A    between atoms: _511  and  _514
REMARK  209  A    between atoms: _514  and  _515
REMARK  210  A    between atoms: _519  and  _520
REMARK  211  A    between atoms: _525  and  _527
REMARK  212  A    between atoms: _527  and  _528
REMARK  213  A    between atoms: _527  and  _530
REMARK  214  A    between atoms: _533  and  _535
REMARK  215  A    between atoms: _535  and  _536
REMARK  216  A    between atoms: _535  and  _538
REMARK  217  A    between atoms: _538  and  _539
REMARK  218  A    between atoms: _544  and  _546
REMARK  219  A    between atoms: _546  and  _547
REMARK  220  A    between atoms: _546  and  _549
REMARK  221  A    between atoms: _549  and  _550
REMARK  222  A    between atoms: _553  and  _555
REMARK  223  A    between atoms: _555  and  _556
REMARK  224  A    between atoms: _555  and  _558
REMARK  225  A    between atoms: _558  and  _559
REMARK  226  A    between atoms: _562  and  _564
REMARK  227  A    between atoms: _564  and  _565
REMARK  228  A    between atoms: _567  and  _569
REMARK  229  A    between atoms: _569  and  _570
REMARK  230  A    between atoms: _569  and  _572
REMARK  231  A    between atoms: _572  and  _573
REMARK  232  A    between atoms: _573  and  _574
REMARK  233  A    between atoms: _574  and  _575
REMARK                            x       y       z     vdW  Elec       q    Type
REMARK                         _______ _______ _______ _____ _____    ______ ____
ROOT
ATOM      1  O   HOH     1      23.519  27.504  26.132  0.00  0.00    +0.000 OA
ENDROOT
TORSDOF 0
REMARK  Name = ../refined-set-2016/3cyx/3cyx_pocket.pdb
REMARK  233 active torsions:
REMARK  status: ('A' for Active; 'I' for Inactive)
REMARK    1  A    between atoms: _1  and  _3
REMARK    2  A    between atoms: _3  and  _4
REMARK    3  A    between atoms: _3  and  _6
REMARK    4  A    between atoms: _6  and  _7
REMARK    5  A    between atoms: _7  and  _8
REMARK    6  A    between atoms: _8  and  _9
REMARK    7  A    between atoms: _18  and  _20
REMARK    8  A    between atoms: _20  and  _21
REMARK    9  A    between atoms: _20  and  _23
REMARK   10  A    between atoms: _23  and  _24
REMARK   11  A    between atoms: _27  and  _29
REMARK   12  A    between atoms: _29  and  _30
REMARK   13  A    between atoms: _29  and  _32
REMARK   14  A    between atoms: _32  and  _33
REMARK   15  A    between atoms: _36  and  _38
REMARK   16  A    between atoms: _38  and  _39
REMARK   17  A    between atoms: _38  and  _41
REMARK   18  A    between atoms: _41  and  _42
REMARK   19  A    between atoms: _45  and  _47
REMARK   20  A    between atoms: _47  and  _48
REMARK   21  A    between atoms: _47  and  _50
REMARK   22  A    between atoms: _50  and  _51
REMARK   23  A    between atoms: _54  and  _56
REMARK   24  A    between atoms: _56  and  _57
REMARK   25  A    between atoms: _59  and  _61
REMARK   26  A    between atoms: _61  and  _62
REMARK   27  A    between atoms: _65  and  _67
REMARK   28  A    between atoms: _67  and  _68
REMARK   29  A    between atoms: _67  and  _70
REMARK   30  A    between atoms: _70  and  _71
REMARK   31  A    between atoms: _74  and  _76
REMARK   32  A    between atoms: _76  and  _77
REMARK   33  A    between atoms: _76  and  _79
REMARK   34  A    between atoms: _79  and  _80
REMARK   35  A    between atoms: _83  and  _85
REMARK   36  A    between atoms: _85  and  _86
REMARK   37  A    between atoms: _85  and  _88
REMARK   38  A    between atoms: _88  and  _89
REMARK   39  A    between atoms: _92  and  _94
REMARK   40  A    between atoms: _94  and  _95
REMARK   41  A    between atoms: _94  and  _97
REMARK   42  A    between atoms: _100  and  _102
REMARK   43  A    between atoms: _102  and  _103
REMARK   44  A    between atoms: _102  and  _105
REMARK   45  A    between atoms: _105  and  _106
REMARK   46  A    between atoms: _106  and  _107
REMARK   47  A    between atoms: _107  and  _108
REMARK   48  A    between atoms: _108  and  _109
REMARK   49  A    between atoms: _113  and  _115
REMARK   50  A    between atoms: _115  and  _116
REMARK   51  A    between atoms: _115  and  _118
REMARK   52  A    between atoms: _118  and  _119
REMARK   53  A    between atoms: _119  and  _120
REMARK   54  A    between atoms: _122  and  _124
REMARK   55  A    between atoms: _124  and  _125
REMARK   56  A    between atoms: _124  and  _127
REMARK   57  A    between atoms: _127  and  _128
REMARK   58  A    between atoms: _131  and  _133
REMARK   59  A    between atoms: _133  and  _134
REMARK   60  A    between atoms: _136  and  _138
REMARK   61  A    between atoms: _138  and  _139
REMARK   62  A    between atoms: _141  and  _143
REMARK   63  A    between atoms: _143  and  _144
REMARK   64  A    between atoms: _143  and  _146
REMARK   65  A    between atoms: _149  and  _151
REMARK   66  A    between atoms: _151  and  _152
REMARK   67  A    between atoms: _154  and  _156
REMARK   68  A    between atoms: _156  and  _157
REMARK   69  A    between atoms: _159  and  _161
REMARK   70  A    between atoms: _161  and  _162
REMARK   71  A    between atoms: _161  and  _164
REMARK   72  A    between atoms: _164  and  _165
REMARK   73  A    between atoms: _171  and  _173
REMARK   74  A    between atoms: _173  and  _174
REMARK   75  A    between atoms: _173  and  _176
REMARK   76  A    between atoms: _176  and  _177
REMARK   77  A    between atoms: _180  and  _182
REMARK   78  A    between atoms: _182  and  _183
REMARK   79  A    between atoms: _182  and  _185
REMARK   80  A    between atoms: _188  and  _190
REMARK   81  A    between atoms: _190  and  _191
REMARK   82  A    between atoms: _190  and  _193
REMARK   83  A    between atoms: _193  and  _194
REMARK   84  A    between atoms: _198  and  _199
REMARK   85  A    between atoms: _204  and  _206
REMARK   86  A    between atoms: _206  and  _207
REMARK   87  A    between atoms: _206  and  _209
REMARK   88  A    between atoms: _209  and  _210
REMARK   89  A    between atoms: _214  and  _215
REMARK   90  A    between atoms: _220  and  _222
REMARK   91  A    between atoms: _222  and  _223
REMARK   92  A    between atoms: _222  and  _225
REMARK   93  A    between atoms: _228  and  _230
REMARK   94  A    between atoms: _230  and  _231
REMARK   95  A    between atoms: _230  and  _233
REMARK   96  A    between atoms: _233  and  _234
REMARK   97  A    between atoms: _239  and  _241
REMARK   98  A    between atoms: _241  and  _242
REMARK   99  A    between atoms: _241  and  _244
REMARK  100  A    between atoms: _244  and  _245
REMARK  101  A    between atoms: _248  and  _250
REMARK  102  A    between atoms: _250  and  _251
REMARK  103  A    between atoms: _250  and  _253
REMARK  104  A    between atoms: _253  and  _254
REMARK  105  A    between atoms: _257  and  _259
REMARK  106  A    between atoms: _259  and  _260
REMARK  107  A    between atoms: _262  and  _264
REMARK  108  A    between atoms: _264  and  _265
REMARK  109  A    between atoms: _264  and  _267
REMARK  110  A    between atoms: _267  and  _268
REMARK  111  A    between atoms: _268  and  _269
REMARK  112  A    between atoms: _269  and  _270
REMARK  113  A    between atoms: _279  and  _281
REMARK  114  A    between atoms: _281  and  _282
REMARK  115  A    between atoms: _281  and  _284
REMARK  116  A    between atoms: _284  and  _285
REMARK  117  A    between atoms: _290  and  _292
REMARK  118  A    between atoms: _292  and  _293
REMARK  119  A    between atoms: _292  and  _295
REMARK  120  A    between atoms: _295  and  _296
REMARK  121  A    between atoms: _296  and  _297
REMARK  122  A    between atoms: _297  and  _298
REMARK  123  A    between atoms: _308  and  _309
REMARK  124  A    between atoms: _314  and  _316
REMARK  125  A    between atoms: _316  and  _317
REMARK  126  A    between atoms: _316  and  _319
REMARK  127  A    between atoms: _319  and  _320
REMARK  128  A    between atoms: _323  and  _325
REMARK  129  A    between atoms: _325  and  _326
REMARK  130  A    between atoms: _325  and  _328
REMARK  131  A    between atoms: _328  and  _329
REMARK  132  A    between atoms: _332  and  _334
REMARK  133  A    between atoms: _334  and  _335
REMARK  134  A    between atoms: _334  and  _337
REMARK  135  A    between atoms: _337  and  _338
REMARK  136  A    between atoms: _341  and  _343
REMARK  137  A    between atoms: _343  and  _344
REMARK  138  A    between atoms: _343  and  _346
REMARK  139  A    between atoms: _346  and  _347
REMARK  140  A    between atoms: _350  and  _352
REMARK  141  A    between atoms: _352  and  _353
REMARK  142  A    between atoms: _352  and  _355
REMARK  143  A    between atoms: _355  and  _356
REMARK  144  A    between atoms: _359  and  _361
REMARK  145  A    between atoms: _361  and  _362
REMARK  146  A    between atoms: _364  and  _366
REMARK  147  A    between atoms: _366  and  _367
REMARK  148  A    between atoms: _370  and  _372
REMARK  149  A    between atoms: _372  and  _373
REMARK  150  A    between atoms: _372  and  _375
REMARK  151  A    between atoms: _375  and  _376
REMARK  152  A    between atoms: _379  and  _381
REMARK  153  A    between atoms: _381  and  _382
REMARK  154  A    between atoms: _381  and  _384
REMARK  155  A    between atoms: _384  and  _385
REMARK  156  A    between atoms: _388  and  _390
REMARK  157  A    between atoms: _390  and  _391
REMARK  158  A    between atoms: _390  and  _393
REMARK  159  A    between atoms: _393  and  _394
REMARK  160  A    between atoms: _397  and  _399
REMARK  161  A    between atoms: _399  and  _400
REMARK  162  A    between atoms: _399  and  _402
REMARK  163  A    between atoms: _405  and  _407
REMARK  164  A    between atoms: _407  and  _408
REMARK  165  A    between atoms: _407  and  _410
REMARK  166  A    between atoms: _410  and  _411
REMARK  167  A    between atoms: _411  and  _412
REMARK  168  A    between atoms: _412  and  _413
REMARK  169  A    between atoms: _413  and  _414
REMARK  170  A    between atoms: _418  and  _420
REMARK  171  A    between atoms: _420  and  _421
REMARK  172  A    between atoms: _420  and  _423
REMARK  173  A    between atoms: _423  and  _424
REMARK  174  A    between atoms: _424  and  _425
REMARK  175  A    between atoms: _427  and  _429
REMARK  176  A    between atoms: _429  and  _430
REMARK  177  A    between atoms: _429  and  _432
REMARK  178  A    between atoms: _432  and  _433
REMARK  179  A    between atoms: _436  and  _438
REMARK  180  A    between atoms: _438  and  _439
REMARK  181  A    between atoms: _441  and  _443
REMARK  182  A    between atoms: _443  and  _444
REMARK  183  A    between atoms: _446  and  _448
REMARK  184  A    between atoms: _448  and  _449
REMARK  185  A    between atoms: _448  and  _451
REMARK  186  A    between atoms: _454  and  _456
REMARK  187  A    between atoms: _456  and  _457
REMARK  188  A    between atoms: _459  and  _461
REMARK  189  A    between atoms: _461  and  _462
REMARK  190  A    between atoms: _464  and  _466
REMARK  191  A    between atoms: _466  and  _467
REMARK  192  A    between atoms: _466  and  _469
REMARK  193  A    between atoms: _469  and  _470
REMARK  194  A    between atoms: _476  and  _478
REMARK  195  A    between atoms: _478  and  _479
REMARK  196  A    between atoms: _478  and  _481
REMARK  197  A    between atoms: _481  and  _482
REMARK  198  A    between atoms: _485  and  _487
REMARK  199  A    between atoms: _487  and  _488
REMARK  200  A    between atoms: _487  and  _490
REMARK  201  A    between atoms: _493  and  _495
REMARK  202  A    between atoms: _495  and  _496
REMARK  203  A    between atoms: _495  and  _498
REMARK  204  A    between atoms: _498  and  _499
REMARK  205  A    between atoms: _503  and  _504
REMARK  206  A    between atoms: _509  and  _511
REMARK  207  A    between atoms: _511  and  _512
REMARK  208  A    between atoms: _511  and  _514
REMARK  209  A    between atoms: _514  and  _515
REMARK  210  A    between atoms: _519  and  _520
REMARK  211  A    between atoms: _525  and  _527
REMARK  212  A    between atoms: _527  and  _528
REMARK  213  A    between atoms: _527  and  _530
REMARK  214  A    between atoms: _533  and  _535
REMARK  215  A    between atoms: _535  and  _536
REMARK  216  A    between atoms: _535  and  _538
REMARK  217  A    between atoms: _538  and  _539
REMARK  218  A    between atoms: _544  and  _546
REMARK  219  A    between atoms: _546  and  _547
REMARK  220  A    between atoms: _546  and  _549
REMARK  221  A    between atoms: _549  and  _550
REMARK  222  A    between atoms: _553  and  _555
REMARK  223  A    between atoms: _555  and  _556
REMARK  224  A    between atoms: _555  and  _558
REMARK  225  A    between atoms: _558  and  _559
REMARK  226  A    between atoms: _562  and  _564
REMARK  227  A    between atoms: _564  and  _565
REMARK  228  A    between atoms: _567  and  _569
REMARK  229  A    between atoms: _569  and  _570
REMARK  230  A    between atoms: _569  and  _572
REMARK  231  A    between atoms: _572  and  _573
REMARK  232  A    between atoms: _573  and  _574
REMARK  233  A    between atoms: _574  and  _575
REMARK                            x       y       z     vdW  Elec       q    Type
REMARK                         _______ _______ _______ _____ _____    ______ ____
ROOT
ATOM      1  O   HOH     1      25.828  25.990  25.165  0.00  0.00    +0.000 OA
ENDROOT
TORSDOF 0
REMARK  Name = ../refined-set-2016/3cyx/3cyx_pocket.pdb
REMARK  233 active torsions:
REMARK  status: ('A' for Active; 'I' for Inactive)
REMARK    1  A    between atoms: _1  and  _3
REMARK    2  A    between atoms: _3  and  _4
REMARK    3  A    between atoms: _3  and  _6
REMARK    4  A    between atoms: _6  and  _7
REMARK    5  A    between atoms: _7  and  _8
REMARK    6  A    between atoms: _8  and  _9
REMARK    7  A    between atoms: _18  and  _20
REMARK    8  A    between atoms: _20  and  _21
REMARK    9  A    between atoms: _20  and  _23
REMARK   10  A    between atoms: _23  and  _24
REMARK   11  A    between atoms: _27  and  _29
REMARK   12  A    between atoms: _29  and  _30
REMARK   13  A    between atoms: _29  and  _32
REMARK   14  A    between atoms: _32  and  _33
REMARK   15  A    between atoms: _36  and  _38
REMARK   16  A    between atoms: _38  and  _39
REMARK   17  A    between atoms: _38  and  _41
REMARK   18  A    between atoms: _41  and  _42
REMARK   19  A    between atoms: _45  and  _47
REMARK   20  A    between atoms: _47  and  _48
REMARK   21  A    between atoms: _47  and  _50
REMARK   22  A    between atoms: _50  and  _51
REMARK   23  A    between atoms: _54  and  _56
REMARK   24  A    between atoms: _56  and  _57
REMARK   25  A    between atoms: _59  and  _61
REMARK   26  A    between atoms: _61  and  _62
REMARK   27  A    between atoms: _65  and  _67
REMARK   28  A    between atoms: _67  and  _68
REMARK   29  A    between atoms: _67  and  _70
REMARK   30  A    between atoms: _70  and  _71
REMARK   31  A    between atoms: _74  and  _76
REMARK   32  A    between atoms: _76  and  _77
REMARK   33  A    between atoms: _76  and  _79
REMARK   34  A    between atoms: _79  and  _80
REMARK   35  A    between atoms: _83  and  _85
REMARK   36  A    between atoms: _85  and  _86
REMARK   37  A    between atoms: _85  and  _88
REMARK   38  A    between atoms: _88  and  _89
REMARK   39  A    between atoms: _92  and  _94
REMARK   40  A    between atoms: _94  and  _95
REMARK   41  A    between atoms: _94  and  _97
REMARK   42  A    between atoms: _100  and  _102
REMARK   43  A    between atoms: _102  and  _103
REMARK   44  A    between atoms: _102  and  _105
REMARK   45  A    between atoms: _105  and  _106
REMARK   46  A    between atoms: _106  and  _107
REMARK   47  A    between atoms: _107  and  _108
REMARK   48  A    between atoms: _108  and  _109
REMARK   49  A    between atoms: _113  and  _115
REMARK   50  A    between atoms: _115  and  _116
REMARK   51  A    between atoms: _115  and  _118
REMARK   52  A    between atoms: _118  and  _119
REMARK   53  A    between atoms: _119  and  _120
REMARK   54  A    between atoms: _122  and  _124
REMARK   55  A    between atoms: _124  and  _125
REMARK   56  A    between atoms: _124  and  _127
REMARK   57  A    between atoms: _127  and  _128
REMARK   58  A    between atoms: _131  and  _133
REMARK   59  A    between atoms: _133  and  _134
REMARK   60  A    between atoms: _136  and  _138
REMARK   61  A    between atoms: _138  and  _139
REMARK   62  A    between atoms: _141  and  _143
REMARK   63  A    between atoms: _143  and  _144
REMARK   64  A    between atoms: _143  and  _146
REMARK   65  A    between atoms: _149  and  _151
REMARK   66  A    between atoms: _151  and  _152
REMARK   67  A    between atoms: _154  and  _156
REMARK   68  A    between atoms: _156  and  _157
REMARK   69  A    between atoms: _159  and  _161
REMARK   70  A    between atoms: _161  and  _162
REMARK   71  A    between atoms: _161  and  _164
REMARK   72  A    between atoms: _164  and  _165
REMARK   73  A    between atoms: _171  and  _173
REMARK   74  A    between atoms: _173  and  _174
REMARK   75  A    between atoms: _173  and  _176
REMARK   76  A    between atoms: _176  and  _177
REMARK   77  A    between atoms: _180  and  _182
REMARK   78  A    between atoms: _182  and  _183
REMARK   79  A    between atoms: _182  and  _185
REMARK   80  A    between atoms: _188  and  _190
REMARK   81  A    between atoms: _190  and  _191
REMARK   82  A    between atoms: _190  and  _193
REMARK   83  A    between atoms: _193  and  _194
REMARK   84  A    between atoms: _198  and  _199
REMARK   85  A    between atoms: _204  and  _206
REMARK   86  A    between atoms: _206  and  _207
REMARK   87  A    between atoms: _206  and  _209
REMARK   88  A    between atoms: _209  and  _210
REMARK   89  A    between atoms: _214  and  _215
REMARK   90  A    between atoms: _220  and  _222
REMARK   91  A    between atoms: _222  and  _223
REMARK   92  A    between atoms: _222  and  _225
REMARK   93  A    between atoms: _228  and  _230
REMARK   94  A    between atoms: _230  and  _231
REMARK   95  A    between atoms: _230  and  _233
REMARK   96  A    between atoms: _233  and  _234
REMARK   97  A    between atoms: _239  and  _241
REMARK   98  A    between atoms: _241  and  _242
REMARK   99  A    between atoms: _241  and  _244
REMARK  100  A    between atoms: _244  and  _245
REMARK  101  A    between atoms: _248  and  _250
REMARK  102  A    between atoms: _250  and  _251
REMARK  103  A    between atoms: _250  and  _253
REMARK  104  A    between atoms: _253  and  _254
REMARK  105  A    between atoms: _257  and  _259
REMARK  106  A    between atoms: _259  and  _260
REMARK  107  A    between atoms: _262  and  _264
REMARK  108  A    between atoms: _264  and  _265
REMARK  109  A    between atoms: _264  and  _267
REMARK  110  A    between atoms: _267  and  _268
REMARK  111  A    between atoms: _268  and  _269
REMARK  112  A    between atoms: _269  and  _270
REMARK  113  A    between atoms: _279  and  _281
REMARK  114  A    between atoms: _281  and  _282
REMARK  115  A    between atoms: _281  and  _284
REMARK  116  A    between atoms: _284  and  _285
REMARK  117  A    between atoms: _290  and  _292
REMARK  118  A    between atoms: _292  and  _293
REMARK  119  A    between atoms: _292  and  _295
REMARK  120  A    between atoms: _295  and  _296
REMARK  121  A    between atoms: _296  and  _297
REMARK  122  A    between atoms: _297  and  _298
REMARK  123  A    between atoms: _308  and  _309
REMARK  124  A    between atoms: _314  and  _316
REMARK  125  A    between atoms: _316  and  _317
REMARK  126  A    between atoms: _316  and  _319
REMARK  127  A    between atoms: _319  and  _320
REMARK  128  A    between atoms: _323  and  _325
REMARK  129  A    between atoms: _325  and  _326
REMARK  130  A    between atoms: _325  and  _328
REMARK  131  A    between atoms: _328  and  _329
REMARK  132  A    between atoms: _332  and  _334
REMARK  133  A    between atoms: _334  and  _335
REMARK  134  A    between atoms: _334  and  _337
REMARK  135  A    between atoms: _337  and  _338
REMARK  136  A    between atoms: _341  and  _343
REMARK  137  A    between atoms: _343  and  _344
REMARK  138  A    between atoms: _343  and  _346
REMARK  139  A    between atoms: _346  and  _347
REMARK  140  A    between atoms: _350  and  _352
REMARK  141  A    between atoms: _352  and  _353
REMARK  142  A    between atoms: _352  and  _355
REMARK  143  A    between atoms: _355  and  _356
REMARK  144  A    between atoms: _359  and  _361
REMARK  145  A    between atoms: _361  and  _362
REMARK  146  A    between atoms: _364  and  _366
REMARK  147  A    between atoms: _366  and  _367
REMARK  148  A    between atoms: _370  and  _372
REMARK  149  A    between atoms: _372  and  _373
REMARK  150  A    between atoms: _372  and  _375
REMARK  151  A    between atoms: _375  and  _376
REMARK  152  A    between atoms: _379  and  _381
REMARK  153  A    between atoms: _381  and  _382
REMARK  154  A    between atoms: _381  and  _384
REMARK  155  A    between atoms: _384  and  _385
REMARK  156  A    between atoms: _388  and  _390
REMARK  157  A    between atoms: _390  and  _391
REMARK  158  A    between atoms: _390  and  _393
REMARK  159  A    between atoms: _393  and  _394
REMARK  160  A    between atoms: _397  and  _399
REMARK  161  A    between atoms: _399  and  _400
REMARK  162  A    between atoms: _399  and  _402
REMARK  163  A    between atoms: _405  and  _407
REMARK  164  A    between atoms: _407  and  _408
REMARK  165  A    between atoms: _407  and  _410
REMARK  166  A    between atoms: _410  and  _411
REMARK  167  A    between atoms: _411  and  _412
REMARK  168  A    between atoms: _412  and  _413
REMARK  169  A    between atoms: _413  and  _414
REMARK  170  A    between atoms: _418  and  _420
REMARK  171  A    between atoms: _420  and  _421
REMARK  172  A    between atoms: _420  and  _423
REMARK  173  A    between atoms: _423  and  _424
REMARK  174  A    between atoms: _424  and  _425
REMARK  175  A    between atoms: _427  and  _429
REMARK  176  A    between atoms: _429  and  _430
REMARK  177  A    between atoms: _429  and  _432
REMARK  178  A    between atoms: _432  and  _433
REMARK  179  A    between atoms: _436  and  _438
REMARK  180  A    between atoms: _438  and  _439
REMARK  181  A    between atoms: _441  and  _443
REMARK  182  A    between atoms: _443  and  _444
REMARK  183  A    between atoms: _446  and  _448
REMARK  184  A    between atoms: _448  and  _449
REMARK  185  A    between atoms: _448  and  _451
REMARK  186  A    between atoms: _454  and  _456
REMARK  187  A    between atoms: _456  and  _457
REMARK  188  A    between atoms: _459  and  _461
REMARK  189  A    between atoms: _461  and  _462
REMARK  190  A    between atoms: _464  and  _466
REMARK  191  A    between atoms: _466  and  _467
REMARK  192  A    between atoms: _466  and  _469
REMARK  193  A    between atoms: _469  and  _470
REMARK  194  A    between atoms: _476  and  _478
REMARK  195  A    between atoms: _478  and  _479
REMARK  196  A    between atoms: _478  and  _481
REMARK  197  A    between atoms: _481  and  _482
REMARK  198  A    between atoms: _485  and  _487
REMARK  199  A    between atoms: _487  and  _488
REMARK  200  A    between atoms: _487  and  _490
REMARK  201  A    between atoms: _493  and  _495
REMARK  202  A    between atoms: _495  and  _496
REMARK  203  A    between atoms: _495  and  _498
REMARK  204  A    between atoms: _498  and  _499
REMARK  205  A    between atoms: _503  and  _504
REMARK  206  A    between atoms: _509  and  _511
REMARK  207  A    between atoms: _511  and  _512
REMARK  208  A    between atoms: _511  and  _514
REMARK  209  A    between atoms: _514  and  _515
REMARK  210  A    between atoms: _519  and  _520
REMARK  211  A    between atoms: _525  and  _527
REMARK  212  A    between atoms: _527  and  _528
REMARK  213  A    between atoms: _527  and  _530
REMARK  214  A    between atoms: _533  and  _535
REMARK  215  A    between atoms: _535  and  _536
REMARK  216  A    between atoms: _535  and  _538
REMARK  217  A    between atoms: _538  and  _539
REMARK  218  A    between atoms: _544  and  _546
REMARK  219  A    between atoms: _546  and  _547
REMARK  220  A    between atoms: _546  and  _549
REMARK  221  A    between atoms: _549  and  _550
REMARK  222  A    between atoms: _553  and  _555
REMARK  223  A    between atoms: _555  and  _556
REMARK  224  A    between atoms: _555  and  _558
REMARK  225  A    between atoms: _558  and  _559
REMARK  226  A    between atoms: _562  and  _564
REMARK  227  A    between atoms: _564  and  _565
REMARK  228  A    between atoms: _567  and  _569
REMARK  229  A    between atoms: _569  and  _570
REMARK  230  A    between atoms: _569  and  _572
REMARK  231  A    between atoms: _572  and  _573
REMARK  232  A    between atoms: _573  and  _574
REMARK  233  A    between atoms: _574  and  _575
REMARK                            x       y       z     vdW  Elec       q    Type
REMARK                         _______ _______ _______ _____ _____    ______ ____
ROOT
ATOM      1  O   HOH     1      24.743  29.948  26.524  0.00  0.00    +0.000 OA
ENDROOT
TORSDOF 0
REMARK  Name = ../refined-set-2016/3cyx/3cyx_pocket.pdb
REMARK  233 active torsions:
REMARK  status: ('A' for Active; 'I' for Inactive)
REMARK    1  A    between atoms: _1  and  _3
REMARK    2  A    between atoms: _3  and  _4
REMARK    3  A    between atoms: _3  and  _6
REMARK    4  A    between atoms: _6  and  _7
REMARK    5  A    between atoms: _7  and  _8
REMARK    6  A    between atoms: _8  and  _9
REMARK    7  A    between atoms: _18  and  _20
REMARK    8  A    between atoms: _20  and  _21
REMARK    9  A    between atoms: _20  and  _23
REMARK   10  A    between atoms: _23  and  _24
REMARK   11  A    between atoms: _27  and  _29
REMARK   12  A    between atoms: _29  and  _30
REMARK   13  A    between atoms: _29  and  _32
REMARK   14  A    between atoms: _32  and  _33
REMARK   15  A    between atoms: _36  and  _38
REMARK   16  A    between atoms: _38  and  _39
REMARK   17  A    between atoms: _38  and  _41
REMARK   18  A    between atoms: _41  and  _42
REMARK   19  A    between atoms: _45  and  _47
REMARK   20  A    between atoms: _47  and  _48
REMARK   21  A    between atoms: _47  and  _50
REMARK   22  A    between atoms: _50  and  _51
REMARK   23  A    between atoms: _54  and  _56
REMARK   24  A    between atoms: _56  and  _57
REMARK   25  A    between atoms: _59  and  _61
REMARK   26  A    between atoms: _61  and  _62
REMARK   27  A    between atoms: _65  and  _67
REMARK   28  A    between atoms: _67  and  _68
REMARK   29  A    between atoms: _67  and  _70
REMARK   30  A    between atoms: _70  and  _71
REMARK   31  A    between atoms: _74  and  _76
REMARK   32  A    between atoms: _76  and  _77
REMARK   33  A    between atoms: _76  and  _79
REMARK   34  A    between atoms: _79  and  _80
REMARK   35  A    between atoms: _83  and  _85
REMARK   36  A    between atoms: _85  and  _86
REMARK   37  A    between atoms: _85  and  _88
REMARK   38  A    between atoms: _88  and  _89
REMARK   39  A    between atoms: _92  and  _94
REMARK   40  A    between atoms: _94  and  _95
REMARK   41  A    between atoms: _94  and  _97
REMARK   42  A    between atoms: _100  and  _102
REMARK   43  A    between atoms: _102  and  _103
REMARK   44  A    between atoms: _102  and  _105
REMARK   45  A    between atoms: _105  and  _106
REMARK   46  A    between atoms: _106  and  _107
REMARK   47  A    between atoms: _107  and  _108
REMARK   48  A    between atoms: _108  and  _109
REMARK   49  A    between atoms: _113  and  _115
REMARK   50  A    between atoms: _115  and  _116
REMARK   51  A    between atoms: _115  and  _118
REMARK   52  A    between atoms: _118  and  _119
REMARK   53  A    between atoms: _119  and  _120
REMARK   54  A    between atoms: _122  and  _124
REMARK   55  A    between atoms: _124  and  _125
REMARK   56  A    between atoms: _124  and  _127
REMARK   57  A    between atoms: _127  and  _128
REMARK   58  A    between atoms: _131  and  _133
REMARK   59  A    between atoms: _133  and  _134
REMARK   60  A    between atoms: _136  and  _138
REMARK   61  A    between atoms: _138  and  _139
REMARK   62  A    between atoms: _141  and  _143
REMARK   63  A    between atoms: _143  and  _144
REMARK   64  A    between atoms: _143  and  _146
REMARK   65  A    between atoms: _149  and  _151
REMARK   66  A    between atoms: _151  and  _152
REMARK   67  A    between atoms: _154  and  _156
REMARK   68  A    between atoms: _156  and  _157
REMARK   69  A    between atoms: _159  and  _161
REMARK   70  A    between atoms: _161  and  _162
REMARK   71  A    between atoms: _161  and  _164
REMARK   72  A    between atoms: _164  and  _165
REMARK   73  A    between atoms: _171  and  _173
REMARK   74  A    between atoms: _173  and  _174
REMARK   75  A    between atoms: _173  and  _176
REMARK   76  A    between atoms: _176  and  _177
REMARK   77  A    between atoms: _180  and  _182
REMARK   78  A    between atoms: _182  and  _183
REMARK   79  A    between atoms: _182  and  _185
REMARK   80  A    between atoms: _188  and  _190
REMARK   81  A    between atoms: _190  and  _191
REMARK   82  A    between atoms: _190  and  _193
REMARK   83  A    between atoms: _193  and  _194
REMARK   84  A    between atoms: _198  and  _199
REMARK   85  A    between atoms: _204  and  _206
REMARK   86  A    between atoms: _206  and  _207
REMARK   87  A    between atoms: _206  and  _209
REMARK   88  A    between atoms: _209  and  _210
REMARK   89  A    between atoms: _214  and  _215
REMARK   90  A    between atoms: _220  and  _222
REMARK   91  A    between atoms: _222  and  _223
REMARK   92  A    between atoms: _222  and  _225
REMARK   93  A    between atoms: _228  and  _230
REMARK   94  A    between atoms: _230  and  _231
REMARK   95  A    between atoms: _230  and  _233
REMARK   96  A    between atoms: _233  and  _234
REMARK   97  A    between atoms: _239  and  _241
REMARK   98  A    between atoms: _241  and  _242
REMARK   99  A    between atoms: _241  and  _244
REMARK  100  A    between atoms: _244  and  _245
REMARK  101  A    between atoms: _248  and  _250
REMARK  102  A    between atoms: _250  and  _251
REMARK  103  A    between atoms: _250  and  _253
REMARK  104  A    between atoms: _253  and  _254
REMARK  105  A    between atoms: _257  and  _259
REMARK  106  A    between atoms: _259  and  _260
REMARK  107  A    between atoms: _262  and  _264
REMARK  108  A    between atoms: _264  and  _265
REMARK  109  A    between atoms: _264  and  _267
REMARK  110  A    between atoms: _267  and  _268
REMARK  111  A    between atoms: _268  and  _269
REMARK  112  A    between atoms: _269  and  _270
REMARK  113  A    between atoms: _279  and  _281
REMARK  114  A    between atoms: _281  and  _282
REMARK  115  A    between atoms: _281  and  _284
REMARK  116  A    between atoms: _284  and  _285
REMARK  117  A    between atoms: _290  and  _292
REMARK  118  A    between atoms: _292  and  _293
REMARK  119  A    between atoms: _292  and  _295
REMARK  120  A    between atoms: _295  and  _296
REMARK  121  A    between atoms: _296  and  _297
REMARK  122  A    between atoms: _297  and  _298
REMARK  123  A    between atoms: _308  and  _309
REMARK  124  A    between atoms: _314  and  _316
REMARK  125  A    between atoms: _316  and  _317
REMARK  126  A    between atoms: _316  and  _319
REMARK  127  A    between atoms: _319  and  _320
REMARK  128  A    between atoms: _323  and  _325
REMARK  129  A    between atoms: _325  and  _326
REMARK  130  A    between atoms: _325  and  _328
REMARK  131  A    between atoms: _328  and  _329
REMARK  132  A    between atoms: _332  and  _334
REMARK  133  A    between atoms: _334  and  _335
REMARK  134  A    between atoms: _334  and  _337
REMARK  135  A    between atoms: _337  and  _338
REMARK  136  A    between atoms: _341  and  _343
REMARK  137  A    between atoms: _343  and  _344
REMARK  138  A    between atoms: _343  and  _346
REMARK  139  A    between atoms: _346  and  _347
REMARK  140  A    between atoms: _350  and  _352
REMARK  141  A    between atoms: _352  and  _353
REMARK  142  A    between atoms: _352  and  _355
REMARK  143  A    between atoms: _355  and  _356
REMARK  144  A    between atoms: _359  and  _361
REMARK  145  A    between atoms: _361  and  _362
REMARK  146  A    between atoms: _364  and  _366
REMARK  147  A    between atoms: _366  and  _367
REMARK  148  A    between atoms: _370  and  _372
REMARK  149  A    between atoms: _372  and  _373
REMARK  150  A    between atoms: _372  and  _375
REMARK  151  A    between atoms: _375  and  _376
REMARK  152  A    between atoms: _379  and  _381
REMARK  153  A    between atoms: _381  and  _382
REMARK  154  A    between atoms: _381  and  _384
REMARK  155  A    between atoms: _384  and  _385
REMARK  156  A    between atoms: _388  and  _390
REMARK  157  A    between atoms: _390  and  _391
REMARK  158  A    between atoms: _390  and  _393
REMARK  159  A    between atoms: _393  and  _394
REMARK  160  A    between atoms: _397  and  _399
REMARK  161  A    between atoms: _399  and  _400
REMARK  162  A    between atoms: _399  and  _402
REMARK  163  A    between atoms: _405  and  _407
REMARK  164  A    between atoms: _407  and  _408
REMARK  165  A    between atoms: _407  and  _410
REMARK  166  A    between atoms: _410  and  _411
REMARK  167  A    between atoms: _411  and  _412
REMARK  168  A    between atoms: _412  and  _413
REMARK  169  A    between atoms: _413  and  _414
REMARK  170  A    between atoms: _418  and  _420
REMARK  171  A    between atoms: _420  and  _421
REMARK  172  A    between atoms: _420  and  _423
REMARK  173  A    between atoms: _423  and  _424
REMARK  174  A    between atoms: _424  and  _425
REMARK  175  A    between atoms: _427  and  _429
REMARK  176  A    between atoms: _429  and  _430
REMARK  177  A    between atoms: _429  and  _432
REMARK  178  A    between atoms: _432  and  _433
REMARK  179  A    between atoms: _436  and  _438
REMARK  180  A    between atoms: _438  and  _439
REMARK  181  A    between atoms: _441  and  _443
REMARK  182  A    between atoms: _443  and  _444
REMARK  183  A    between atoms: _446  and  _448
REMARK  184  A    between atoms: _448  and  _449
REMARK  185  A    between atoms: _448  and  _451
REMARK  186  A    between atoms: _454  and  _456
REMARK  187  A    between atoms: _456  and  _457
REMARK  188  A    between atoms: _459  and  _461
REMARK  189  A    between atoms: _461  and  _462
REMARK  190  A    between atoms: _464  and  _466
REMARK  191  A    between atoms: _466  and  _467
REMARK  192  A    between atoms: _466  and  _469
REMARK  193  A    between atoms: _469  and  _470
REMARK  194  A    between atoms: _476  and  _478
REMARK  195  A    between atoms: _478  and  _479
REMARK  196  A    between atoms: _478  and  _481
REMARK  197  A    between atoms: _481  and  _482
REMARK  198  A    between atoms: _485  and  _487
REMARK  199  A    between atoms: _487  and  _488
REMARK  200  A    between atoms: _487  and  _490
REMARK  201  A    between atoms: _493  and  _495
REMARK  202  A    between atoms: _495  and  _496
REMARK  203  A    between atoms: _495  and  _498
REMARK  204  A    between atoms: _498  and  _499
REMARK  205  A    between atoms: _503  and  _504
REMARK  206  A    between atoms: _509  and  _511
REMARK  207  A    between atoms: _511  and  _512
REMARK  208  A    between atoms: _511  and  _514
REMARK  209  A    between atoms: _514  and  _515
REMARK  210  A    between atoms: _519  and  _520
REMARK  211  A    between atoms: _525  and  _527
REMARK  212  A    between atoms: _527  and  _528
REMARK  213  A    between atoms: _527  and  _530
REMARK  214  A    between atoms: _533  and  _535
REMARK  215  A    between atoms: _535  and  _536
REMARK  216  A    between atoms: _535  and  _538
REMARK  217  A    between atoms: _538  and  _539
REMARK  218  A    between atoms: _544  and  _546
REMARK  219  A    between atoms: _546  and  _547
REMARK  220  A    between atoms: _546  and  _549
REMARK  221  A    between atoms: _549  and  _550
REMARK  222  A    between atoms: _553  and  _555
REMARK  223  A    between atoms: _555  and  _556
REMARK  224  A    between atoms: _555  and  _558
REMARK  225  A    between atoms: _558  and  _559
REMARK  226  A    between atoms: _562  and  _564
REMARK  227  A    between atoms: _564  and  _565
REMARK  228  A    between atoms: _567  and  _569
REMARK  229  A    between atoms: _569  and  _570
REMARK  230  A    between atoms: _569  and  _572
REMARK  231  A    between atoms: _572  and  _573
REMARK  232  A    between atoms: _573  and  _574
REMARK  233  A    between atoms: _574  and  _575
REMARK                            x       y       z     vdW  Elec       q    Type
REMARK                         _______ _______ _______ _____ _____    ______ ____
ROOT
ATOM      1  O   HOH     1      13.401  15.878  11.643  0.00  0.00    +0.000 OA
ENDROOT
TORSDOF 0
REMARK  Name = ../refined-set-2016/3cyx/3cyx_pocket.pdb
REMARK  233 active torsions:
REMARK  status: ('A' for Active; 'I' for Inactive)
REMARK    1  A    between atoms: _1  and  _3
REMARK    2  A    between atoms: _3  and  _4
REMARK    3  A    between atoms: _3  and  _6
REMARK    4  A    between atoms: _6  and  _7
REMARK    5  A    between atoms: _7  and  _8
REMARK    6  A    between atoms: _8  and  _9
REMARK    7  A    between atoms: _18  and  _20
REMARK    8  A    between atoms: _20  and  _21
REMARK    9  A    between atoms: _20  and  _23
REMARK   10  A    between atoms: _23  and  _24
REMARK   11  A    between atoms: _27  and  _29
REMARK   12  A    between atoms: _29  and  _30
REMARK   13  A    between atoms: _29  and  _32
REMARK   14  A    between atoms: _32  and  _33
REMARK   15  A    between atoms: _36  and  _38
REMARK   16  A    between atoms: _38  and  _39
REMARK   17  A    between atoms: _38  and  _41
REMARK   18  A    between atoms: _41  and  _42
REMARK   19  A    between atoms: _45  and  _47
REMARK   20  A    between atoms: _47  and  _48
REMARK   21  A    between atoms: _47  and  _50
REMARK   22  A    between atoms: _50  and  _51
REMARK   23  A    between atoms: _54  and  _56
REMARK   24  A    between atoms: _56  and  _57
REMARK   25  A    between atoms: _59  and  _61
REMARK   26  A    between atoms: _61  and  _62
REMARK   27  A    between atoms: _65  and  _67
REMARK   28  A    between atoms: _67  and  _68
REMARK   29  A    between atoms: _67  and  _70
REMARK   30  A    between atoms: _70  and  _71
REMARK   31  A    between atoms: _74  and  _76
REMARK   32  A    between atoms: _76  and  _77
REMARK   33  A    between atoms: _76  and  _79
REMARK   34  A    between atoms: _79  and  _80
REMARK   35  A    between atoms: _83  and  _85
REMARK   36  A    between atoms: _85  and  _86
REMARK   37  A    between atoms: _85  and  _88
REMARK   38  A    between atoms: _88  and  _89
REMARK   39  A    between atoms: _92  and  _94
REMARK   40  A    between atoms: _94  and  _95
REMARK   41  A    between atoms: _94  and  _97
REMARK   42  A    between atoms: _100  and  _102
REMARK   43  A    between atoms: _102  and  _103
REMARK   44  A    between atoms: _102  and  _105
REMARK   45  A    between atoms: _105  and  _106
REMARK   46  A    between atoms: _106  and  _107
REMARK   47  A    between atoms: _107  and  _108
REMARK   48  A    between atoms: _108  and  _109
REMARK   49  A    between atoms: _113  and  _115
REMARK   50  A    between atoms: _115  and  _116
REMARK   51  A    between atoms: _115  and  _118
REMARK   52  A    between atoms: _118  and  _119
REMARK   53  A    between atoms: _119  and  _120
REMARK   54  A    between atoms: _122  and  _124
REMARK   55  A    between atoms: _124  and  _125
REMARK   56  A    between atoms: _124  and  _127
REMARK   57  A    between atoms: _127  and  _128
REMARK   58  A    between atoms: _131  and  _133
REMARK   59  A    between atoms: _133  and  _134
REMARK   60  A    between atoms: _136  and  _138
REMARK   61  A    between atoms: _138  and  _139
REMARK   62  A    between atoms: _141  and  _143
REMARK   63  A    between atoms: _143  and  _144
REMARK   64  A    between atoms: _143  and  _146
REMARK   65  A    between atoms: _149  and  _151
REMARK   66  A    between atoms: _151  and  _152
REMARK   67  A    between atoms: _154  and  _156
REMARK   68  A    between atoms: _156  and  _157
REMARK   69  A    between atoms: _159  and  _161
REMARK   70  A    between atoms: _161  and  _162
REMARK   71  A    between atoms: _161  and  _164
REMARK   72  A    between atoms: _164  and  _165
REMARK   73  A    between atoms: _171  and  _173
REMARK   74  A    between atoms: _173  and  _174
REMARK   75  A    between atoms: _173  and  _176
REMARK   76  A    between atoms: _176  and  _177
REMARK   77  A    between atoms: _180  and  _182
REMARK   78  A    between atoms: _182  and  _183
REMARK   79  A    between atoms: _182  and  _185
REMARK   80  A    between atoms: _188  and  _190
REMARK   81  A    between atoms: _190  and  _191
REMARK   82  A    between atoms: _190  and  _193
REMARK   83  A    between atoms: _193  and  _194
REMARK   84  A    between atoms: _198  and  _199
REMARK   85  A    between atoms: _204  and  _206
REMARK   86  A    between atoms: _206  and  _207
REMARK   87  A    between atoms: _206  and  _209
REMARK   88  A    between atoms: _209  and  _210
REMARK   89  A    between atoms: _214  and  _215
REMARK   90  A    between atoms: _220  and  _222
REMARK   91  A    between atoms: _222  and  _223
REMARK   92  A    between atoms: _222  and  _225
REMARK   93  A    between atoms: _228  and  _230
REMARK   94  A    between atoms: _230  and  _231
REMARK   95  A    between atoms: _230  and  _233
REMARK   96  A    between atoms: _233  and  _234
REMARK   97  A    between atoms: _239  and  _241
REMARK   98  A    between atoms: _241  and  _242
REMARK   99  A    between atoms: _241  and  _244
REMARK  100  A    between atoms: _244  and  _245
REMARK  101  A    between atoms: _248  and  _250
REMARK  102  A    between atoms: _250  and  _251
REMARK  103  A    between atoms: _250  and  _253
REMARK  104  A    between atoms: _253  and  _254
REMARK  105  A    between atoms: _257  and  _259
REMARK  106  A    between atoms: _259  and  _260
REMARK  107  A    between atoms: _262  and  _264
REMARK  108  A    between atoms: _264  and  _265
REMARK  109  A    between atoms: _264  and  _267
REMARK  110  A    between atoms: _267  and  _268
REMARK  111  A    between atoms: _268  and  _269
REMARK  112  A    between atoms: _269  and  _270
REMARK  113  A    between atoms: _279  and  _281
REMARK  114  A    between atoms: _281  and  _282
REMARK  115  A    between atoms: _281  and  _284
REMARK  116  A    between atoms: _284  and  _285
REMARK  117  A    between atoms: _290  and  _292
REMARK  118  A    between atoms: _292  and  _293
REMARK  119  A    between atoms: _292  and  _295
REMARK  120  A    between atoms: _295  and  _296
REMARK  121  A    between atoms: _296  and  _297
REMARK  122  A    between atoms: _297  and  _298
REMARK  123  A    between atoms: _308  and  _309
REMARK  124  A    between atoms: _314  and  _316
REMARK  125  A    between atoms: _316  and  _317
REMARK  126  A    between atoms: _316  and  _319
REMARK  127  A    between atoms: _319  and  _320
REMARK  128  A    between atoms: _323  and  _325
REMARK  129  A    between atoms: _325  and  _326
REMARK  130  A    between atoms: _325  and  _328
REMARK  131  A    between atoms: _328  and  _329
REMARK  132  A    between atoms: _332  and  _334
REMARK  133  A    between atoms: _334  and  _335
REMARK  134  A    between atoms: _334  and  _337
REMARK  135  A    between atoms: _337  and  _338
REMARK  136  A    between atoms: _341  and  _343
REMARK  137  A    between atoms: _343  and  _344
REMARK  138  A    between atoms: _343  and  _346
REMARK  139  A    between atoms: _346  and  _347
REMARK  140  A    between atoms: _350  and  _352
REMARK  141  A    between atoms: _352  and  _353
REMARK  142  A    between atoms: _352  and  _355
REMARK  143  A    between atoms: _355  and  _356
REMARK  144  A    between atoms: _359  and  _361
REMARK  145  A    between atoms: _361  and  _362
REMARK  146  A    between atoms: _364  and  _366
REMARK  147  A    between atoms: _366  and  _367
REMARK  148  A    between atoms: _370  and  _372
REMARK  149  A    between atoms: _372  and  _373
REMARK  150  A    between atoms: _372  and  _375
REMARK  151  A    between atoms: _375  and  _376
REMARK  152  A    between atoms: _379  and  _381
REMARK  153  A    between atoms: _381  and  _382
REMARK  154  A    between atoms: _381  and  _384
REMARK  155  A    between atoms: _384  and  _385
REMARK  156  A    between atoms: _388  and  _390
REMARK  157  A    between atoms: _390  and  _391
REMARK  158  A    between atoms: _390  and  _393
REMARK  159  A    between atoms: _393  and  _394
REMARK  160  A    between atoms: _397  and  _399
REMARK  161  A    between atoms: _399  and  _400
REMARK  162  A    between atoms: _399  and  _402
REMARK  163  A    between atoms: _405  and  _407
REMARK  164  A    between atoms: _407  and  _408
REMARK  165  A    between atoms: _407  and  _410
REMARK  166  A    between atoms: _410  and  _411
REMARK  167  A    between atoms: _411  and  _412
REMARK  168  A    between atoms: _412  and  _413
REMARK  169  A    between atoms: _413  and  _414
REMARK  170  A    between atoms: _418  and  _420
REMARK  171  A    between atoms: _420  and  _421
REMARK  172  A    between atoms: _420  and  _423
REMARK  173  A    between atoms: _423  and  _424
REMARK  174  A    between atoms: _424  and  _425
REMARK  175  A    between atoms: _427  and  _429
REMARK  176  A    between atoms: _429  and  _430
REMARK  177  A    between atoms: _429  and  _432
REMARK  178  A    between atoms: _432  and  _433
REMARK  179  A    between atoms: _436  and  _438
REMARK  180  A    between atoms: _438  and  _439
REMARK  181  A    between atoms: _441  and  _443
REMARK  182  A    between atoms: _443  and  _444
REMARK  183  A    between atoms: _446  and  _448
REMARK  184  A    between atoms: _448  and  _449
REMARK  185  A    between atoms: _448  and  _451
REMARK  186  A    between atoms: _454  and  _456
REMARK  187  A    between atoms: _456  and  _457
REMARK  188  A    between atoms: _459  and  _461
REMARK  189  A    between atoms: _461  and  _462
REMARK  190  A    between atoms: _464  and  _466
REMARK  191  A    between atoms: _466  and  _467
REMARK  192  A    between atoms: _466  and  _469
REMARK  193  A    between atoms: _469  and  _470
REMARK  194  A    between atoms: _476  and  _478
REMARK  195  A    between atoms: _478  and  _479
REMARK  196  A    between atoms: _478  and  _481
REMARK  197  A    between atoms: _481  and  _482
REMARK  198  A    between atoms: _485  and  _487
REMARK  199  A    between atoms: _487  and  _488
REMARK  200  A    between atoms: _487  and  _490
REMARK  201  A    between atoms: _493  and  _495
REMARK  202  A    between atoms: _495  and  _496
REMARK  203  A    between atoms: _495  and  _498
REMARK  204  A    between atoms: _498  and  _499
REMARK  205  A    between atoms: _503  and  _504
REMARK  206  A    between atoms: _509  and  _511
REMARK  207  A    between atoms: _511  and  _512
REMARK  208  A    between atoms: _511  and  _514
REMARK  209  A    between atoms: _514  and  _515
REMARK  210  A    between atoms: _519  and  _520
REMARK  211  A    between atoms: _525  and  _527
REMARK  212  A    between atoms: _527  and  _528
REMARK  213  A    between atoms: _527  and  _530
REMARK  214  A    between atoms: _533  and  _535
REMARK  215  A    between atoms: _535  and  _536
REMARK  216  A    between atoms: _535  and  _538
REMARK  217  A    between atoms: _538  and  _539
REMARK  218  A    between atoms: _544  and  _546
REMARK  219  A    between atoms: _546  and  _547
REMARK  220  A    between atoms: _546  and  _549
REMARK  221  A    between atoms: _549  and  _550
REMARK  222  A    between atoms: _553  and  _555
REMARK  223  A    between atoms: _555  and  _556
REMARK  224  A    between atoms: _555  and  _558
REMARK  225  A    between atoms: _558  and  _559
REMARK  226  A    between atoms: _562  and  _564
REMARK  227  A    between atoms: _564  and  _565
REMARK  228  A    between atoms: _567  and  _569
REMARK  229  A    between atoms: _569  and  _570
REMARK  230  A    between atoms: _569  and  _572
REMARK  231  A    between atoms: _572  and  _573
REMARK  232  A    between atoms: _573  and  _574
REMARK  233  A    between atoms: _574  and  _575
REMARK                            x       y       z     vdW  Elec       q    Type
REMARK                         _______ _______ _______ _____ _____    ______ ____
ROOT
ATOM      1  O   HOH     1      10.897  19.557  18.465  0.00  0.00    +0.000 OA
ENDROOT
TORSDOF 0
REMARK  Name = ../refined-set-2016/3cyx/3cyx_pocket.pdb
REMARK  233 active torsions:
REMARK  status: ('A' for Active; 'I' for Inactive)
REMARK    1  A    between atoms: _1  and  _3
REMARK    2  A    between atoms: _3  and  _4
REMARK    3  A    between atoms: _3  and  _6
REMARK    4  A    between atoms: _6  and  _7
REMARK    5  A    between atoms: _7  and  _8
REMARK    6  A    between atoms: _8  and  _9
REMARK    7  A    between atoms: _18  and  _20
REMARK    8  A    between atoms: _20  and  _21
REMARK    9  A    between atoms: _20  and  _23
REMARK   10  A    between atoms: _23  and  _24
REMARK   11  A    between atoms: _27  and  _29
REMARK   12  A    between atoms: _29  and  _30
REMARK   13  A    between atoms: _29  and  _32
REMARK   14  A    between atoms: _32  and  _33
REMARK   15  A    between atoms: _36  and  _38
REMARK   16  A    between atoms: _38  and  _39
REMARK   17  A    between atoms: _38  and  _41
REMARK   18  A    between atoms: _41  and  _42
REMARK   19  A    between atoms: _45  and  _47
REMARK   20  A    between atoms: _47  and  _48
REMARK   21  A    between atoms: _47  and  _50
REMARK   22  A    between atoms: _50  and  _51
REMARK   23  A    between atoms: _54  and  _56
REMARK   24  A    between atoms: _56  and  _57
REMARK   25  A    between atoms: _59  and  _61
REMARK   26  A    between atoms: _61  and  _62
REMARK   27  A    between atoms: _65  and  _67
REMARK   28  A    between atoms: _67  and  _68
REMARK   29  A    between atoms: _67  and  _70
REMARK   30  A    between atoms: _70  and  _71
REMARK   31  A    between atoms: _74  and  _76
REMARK   32  A    between atoms: _76  and  _77
REMARK   33  A    between atoms: _76  and  _79
REMARK   34  A    between atoms: _79  and  _80
REMARK   35  A    between atoms: _83  and  _85
REMARK   36  A    between atoms: _85  and  _86
REMARK   37  A    between atoms: _85  and  _88
REMARK   38  A    between atoms: _88  and  _89
REMARK   39  A    between atoms: _92  and  _94
REMARK   40  A    between atoms: _94  and  _95
REMARK   41  A    between atoms: _94  and  _97
REMARK   42  A    between atoms: _100  and  _102
REMARK   43  A    between atoms: _102  and  _103
REMARK   44  A    between atoms: _102  and  _105
REMARK   45  A    between atoms: _105  and  _106
REMARK   46  A    between atoms: _106  and  _107
REMARK   47  A    between atoms: _107  and  _108
REMARK   48  A    between atoms: _108  and  _109
REMARK   49  A    between atoms: _113  and  _115
REMARK   50  A    between atoms: _115  and  _116
REMARK   51  A    between atoms: _115  and  _118
REMARK   52  A    between atoms: _118  and  _119
REMARK   53  A    between atoms: _119  and  _120
REMARK   54  A    between atoms: _122  and  _124
REMARK   55  A    between atoms: _124  and  _125
REMARK   56  A    between atoms: _124  and  _127
REMARK   57  A    between atoms: _127  and  _128
REMARK   58  A    between atoms: _131  and  _133
REMARK   59  A    between atoms: _133  and  _134
REMARK   60  A    between atoms: _136  and  _138
REMARK   61  A    between atoms: _138  and  _139
REMARK   62  A    between atoms: _141  and  _143
REMARK   63  A    between atoms: _143  and  _144
REMARK   64  A    between atoms: _143  and  _146
REMARK   65  A    between atoms: _149  and  _151
REMARK   66  A    between atoms: _151  and  _152
REMARK   67  A    between atoms: _154  and  _156
REMARK   68  A    between atoms: _156  and  _157
REMARK   69  A    between atoms: _159  and  _161
REMARK   70  A    between atoms: _161  and  _162
REMARK   71  A    between atoms: _161  and  _164
REMARK   72  A    between atoms: _164  and  _165
REMARK   73  A    between atoms: _171  and  _173
REMARK   74  A    between atoms: _173  and  _174
REMARK   75  A    between atoms: _173  and  _176
REMARK   76  A    between atoms: _176  and  _177
REMARK   77  A    between atoms: _180  and  _182
REMARK   78  A    between atoms: _182  and  _183
REMARK   79  A    between atoms: _182  and  _185
REMARK   80  A    between atoms: _188  and  _190
REMARK   81  A    between atoms: _190  and  _191
REMARK   82  A    between atoms: _190  and  _193
REMARK   83  A    between atoms: _193  and  _194
REMARK   84  A    between atoms: _198  and  _199
REMARK   85  A    between atoms: _204  and  _206
REMARK   86  A    between atoms: _206  and  _207
REMARK   87  A    between atoms: _206  and  _209
REMARK   88  A    between atoms: _209  and  _210
REMARK   89  A    between atoms: _214  and  _215
REMARK   90  A    between atoms: _220  and  _222
REMARK   91  A    between atoms: _222  and  _223
REMARK   92  A    between atoms: _222  and  _225
REMARK   93  A    between atoms: _228  and  _230
REMARK   94  A    between atoms: _230  and  _231
REMARK   95  A    between atoms: _230  and  _233
REMARK   96  A    between atoms: _233  and  _234
REMARK   97  A    between atoms: _239  and  _241
REMARK   98  A    between atoms: _241  and  _242
REMARK   99  A    between atoms: _241  and  _244
REMARK  100  A    between atoms: _244  and  _245
REMARK  101  A    between atoms: _248  and  _250
REMARK  102  A    between atoms: _250  and  _251
REMARK  103  A    between atoms: _250  and  _253
REMARK  104  A    between atoms: _253  and  _254
REMARK  105  A    between atoms: _257  and  _259
REMARK  106  A    between atoms: _259  and  _260
REMARK  107  A    between atoms: _262  and  _264
REMARK  108  A    between atoms: _264  and  _265
REMARK  109  A    between atoms: _264  and  _267
REMARK  110  A    between atoms: _267  and  _268
REMARK  111  A    between atoms: _268  and  _269
REMARK  112  A    between atoms: _269  and  _270
REMARK  113  A    between atoms: _279  and  _281
REMARK  114  A    between atoms: _281  and  _282
REMARK  115  A    between atoms: _281  and  _284
REMARK  116  A    between atoms: _284  and  _285
REMARK  117  A    between atoms: _290  and  _292
REMARK  118  A    between atoms: _292  and  _293
REMARK  119  A    between atoms: _292  and  _295
REMARK  120  A    between atoms: _295  and  _296
REMARK  121  A    between atoms: _296  and  _297
REMARK  122  A    between atoms: _297  and  _298
REMARK  123  A    between atoms: _308  and  _309
REMARK  124  A    between atoms: _314  and  _316
REMARK  125  A    between atoms: _316  and  _317
REMARK  126  A    between atoms: _316  and  _319
REMARK  127  A    between atoms: _319  and  _320
REMARK  128  A    between atoms: _323  and  _325
REMARK  129  A    between atoms: _325  and  _326
REMARK  130  A    between atoms: _325  and  _328
REMARK  131  A    between atoms: _328  and  _329
REMARK  132  A    between atoms: _332  and  _334
REMARK  133  A    between atoms: _334  and  _335
REMARK  134  A    between atoms: _334  and  _337
REMARK  135  A    between atoms: _337  and  _338
REMARK  136  A    between atoms: _341  and  _343
REMARK  137  A    between atoms: _343  and  _344
REMARK  138  A    between atoms: _343  and  _346
REMARK  139  A    between atoms: _346  and  _347
REMARK  140  A    between atoms: _350  and  _352
REMARK  141  A    between atoms: _352  and  _353
REMARK  142  A    between atoms: _352  and  _355
REMARK  143  A    between atoms: _355  and  _356
REMARK  144  A    between atoms: _359  and  _361
REMARK  145  A    between atoms: _361  and  _362
REMARK  146  A    between atoms: _364  and  _366
REMARK  147  A    between atoms: _366  and  _367
REMARK  148  A    between atoms: _370  and  _372
REMARK  149  A    between atoms: _372  and  _373
REMARK  150  A    between atoms: _372  and  _375
REMARK  151  A    between atoms: _375  and  _376
REMARK  152  A    between atoms: _379  and  _381
REMARK  153  A    between atoms: _381  and  _382
REMARK  154  A    between atoms: _381  and  _384
REMARK  155  A    between atoms: _384  and  _385
REMARK  156  A    between atoms: _388  and  _390
REMARK  157  A    between atoms: _390  and  _391
REMARK  158  A    between atoms: _390  and  _393
REMARK  159  A    between atoms: _393  and  _394
REMARK  160  A    between atoms: _397  and  _399
REMARK  161  A    between atoms: _399  and  _400
REMARK  162  A    between atoms: _399  and  _402
REMARK  163  A    between atoms: _405  and  _407
REMARK  164  A    between atoms: _407  and  _408
REMARK  165  A    between atoms: _407  and  _410
REMARK  166  A    between atoms: _410  and  _411
REMARK  167  A    between atoms: _411  and  _412
REMARK  168  A    between atoms: _412  and  _413
REMARK  169  A    between atoms: _413  and  _414
REMARK  170  A    between atoms: _418  and  _420
REMARK  171  A    between atoms: _420  and  _421
REMARK  172  A    between atoms: _420  and  _423
REMARK  173  A    between atoms: _423  and  _424
REMARK  174  A    between atoms: _424  and  _425
REMARK  175  A    between atoms: _427  and  _429
REMARK  176  A    between atoms: _429  and  _430
REMARK  177  A    between atoms: _429  and  _432
REMARK  178  A    between atoms: _432  and  _433
REMARK  179  A    between atoms: _436  and  _438
REMARK  180  A    between atoms: _438  and  _439
REMARK  181  A    between atoms: _441  and  _443
REMARK  182  A    between atoms: _443  and  _444
REMARK  183  A    between atoms: _446  and  _448
REMARK  184  A    between atoms: _448  and  _449
REMARK  185  A    between atoms: _448  and  _451
REMARK  186  A    between atoms: _454  and  _456
REMARK  187  A    between atoms: _456  and  _457
REMARK  188  A    between atoms: _459  and  _461
REMARK  189  A    between atoms: _461  and  _462
REMARK  190  A    between atoms: _464  and  _466
REMARK  191  A    between atoms: _466  and  _467
REMARK  192  A    between atoms: _466  and  _469
REMARK  193  A    between atoms: _469  and  _470
REMARK  194  A    between atoms: _476  and  _478
REMARK  195  A    between atoms: _478  and  _479
REMARK  196  A    between atoms: _478  and  _481
REMARK  197  A    between atoms: _481  and  _482
REMARK  198  A    between atoms: _485  and  _487
REMARK  199  A    between atoms: _487  and  _488
REMARK  200  A    between atoms: _487  and  _490
REMARK  201  A    between atoms: _493  and  _495
REMARK  202  A    between atoms: _495  and  _496
REMARK  203  A    between atoms: _495  and  _498
REMARK  204  A    between atoms: _498  and  _499
REMARK  205  A    between atoms: _503  and  _504
REMARK  206  A    between atoms: _509  and  _511
REMARK  207  A    between atoms: _511  and  _512
REMARK  208  A    between atoms: _511  and  _514
REMARK  209  A    between atoms: _514  and  _515
REMARK  210  A    between atoms: _519  and  _520
REMARK  211  A    between atoms: _525  and  _527
REMARK  212  A    between atoms: _527  and  _528
REMARK  213  A    between atoms: _527  and  _530
REMARK  214  A    between atoms: _533  and  _535
REMARK  215  A    between atoms: _535  and  _536
REMARK  216  A    between atoms: _535  and  _538
REMARK  217  A    between atoms: _538  and  _539
REMARK  218  A    between atoms: _544  and  _546
REMARK  219  A    between atoms: _546  and  _547
REMARK  220  A    between atoms: _546  and  _549
REMARK  221  A    between atoms: _549  and  _550
REMARK  222  A    between atoms: _553  and  _555
REMARK  223  A    between atoms: _555  and  _556
REMARK  224  A    between atoms: _555  and  _558
REMARK  225  A    between atoms: _558  and  _559
REMARK  226  A    between atoms: _562  and  _564
REMARK  227  A    between atoms: _564  and  _565
REMARK  228  A    between atoms: _567  and  _569
REMARK  229  A    between atoms: _569  and  _570
REMARK  230  A    between atoms: _569  and  _572
REMARK  231  A    between atoms: _572  and  _573
REMARK  232  A    between atoms: _573  and  _574
REMARK  233  A    between atoms: _574  and  _575
REMARK                            x       y       z     vdW  Elec       q    Type
REMARK                         _______ _______ _______ _____ _____    ______ ____
ROOT
ATOM      1  O   HOH     1      11.597  17.107  15.161  0.00  0.00    +0.000 OA
ENDROOT
TORSDOF 0
REMARK  Name = ../refined-set-2016/3cyx/3cyx_pocket.pdb
REMARK  233 active torsions:
REMARK  status: ('A' for Active; 'I' for Inactive)
REMARK    1  A    between atoms: _1  and  _3
REMARK    2  A    between atoms: _3  and  _4
REMARK    3  A    between atoms: _3  and  _6
REMARK    4  A    between atoms: _6  and  _7
REMARK    5  A    between atoms: _7  and  _8
REMARK    6  A    between atoms: _8  and  _9
REMARK    7  A    between atoms: _18  and  _20
REMARK    8  A    between atoms: _20  and  _21
REMARK    9  A    between atoms: _20  and  _23
REMARK   10  A    between atoms: _23  and  _24
REMARK   11  A    between atoms: _27  and  _29
REMARK   12  A    between atoms: _29  and  _30
REMARK   13  A    between atoms: _29  and  _32
REMARK   14  A    between atoms: _32  and  _33
REMARK   15  A    between atoms: _36  and  _38
REMARK   16  A    between atoms: _38  and  _39
REMARK   17  A    between atoms: _38  and  _41
REMARK   18  A    between atoms: _41  and  _42
REMARK   19  A    between atoms: _45  and  _47
REMARK   20  A    between atoms: _47  and  _48
REMARK   21  A    between atoms: _47  and  _50
REMARK   22  A    between atoms: _50  and  _51
REMARK   23  A    between atoms: _54  and  _56
REMARK   24  A    between atoms: _56  and  _57
REMARK   25  A    between atoms: _59  and  _61
REMARK   26  A    between atoms: _61  and  _62
REMARK   27  A    between atoms: _65  and  _67
REMARK   28  A    between atoms: _67  and  _68
REMARK   29  A    between atoms: _67  and  _70
REMARK   30  A    between atoms: _70  and  _71
REMARK   31  A    between atoms: _74  and  _76
REMARK   32  A    between atoms: _76  and  _77
REMARK   33  A    between atoms: _76  and  _79
REMARK   34  A    between atoms: _79  and  _80
REMARK   35  A    between atoms: _83  and  _85
REMARK   36  A    between atoms: _85  and  _86
REMARK   37  A    between atoms: _85  and  _88
REMARK   38  A    between atoms: _88  and  _89
REMARK   39  A    between atoms: _92  and  _94
REMARK   40  A    between atoms: _94  and  _95
REMARK   41  A    between atoms: _94  and  _97
REMARK   42  A    between atoms: _100  and  _102
REMARK   43  A    between atoms: _102  and  _103
REMARK   44  A    between atoms: _102  and  _105
REMARK   45  A    between atoms: _105  and  _106
REMARK   46  A    between atoms: _106  and  _107
REMARK   47  A    between atoms: _107  and  _108
REMARK   48  A    between atoms: _108  and  _109
REMARK   49  A    between atoms: _113  and  _115
REMARK   50  A    between atoms: _115  and  _116
REMARK   51  A    between atoms: _115  and  _118
REMARK   52  A    between atoms: _118  and  _119
REMARK   53  A    between atoms: _119  and  _120
REMARK   54  A    between atoms: _122  and  _124
REMARK   55  A    between atoms: _124  and  _125
REMARK   56  A    between atoms: _124  and  _127
REMARK   57  A    between atoms: _127  and  _128
REMARK   58  A    between atoms: _131  and  _133
REMARK   59  A    between atoms: _133  and  _134
REMARK   60  A    between atoms: _136  and  _138
REMARK   61  A    between atoms: _138  and  _139
REMARK   62  A    between atoms: _141  and  _143
REMARK   63  A    between atoms: _143  and  _144
REMARK   64  A    between atoms: _143  and  _146
REMARK   65  A    between atoms: _149  and  _151
REMARK   66  A    between atoms: _151  and  _152
REMARK   67  A    between atoms: _154  and  _156
REMARK   68  A    between atoms: _156  and  _157
REMARK   69  A    between atoms: _159  and  _161
REMARK   70  A    between atoms: _161  and  _162
REMARK   71  A    between atoms: _161  and  _164
REMARK   72  A    between atoms: _164  and  _165
REMARK   73  A    between atoms: _171  and  _173
REMARK   74  A    between atoms: _173  and  _174
REMARK   75  A    between atoms: _173  and  _176
REMARK   76  A    between atoms: _176  and  _177
REMARK   77  A    between atoms: _180  and  _182
REMARK   78  A    between atoms: _182  and  _183
REMARK   79  A    between atoms: _182  and  _185
REMARK   80  A    between atoms: _188  and  _190
REMARK   81  A    between atoms: _190  and  _191
REMARK   82  A    between atoms: _190  and  _193
REMARK   83  A    between atoms: _193  and  _194
REMARK   84  A    between atoms: _198  and  _199
REMARK   85  A    between atoms: _204  and  _206
REMARK   86  A    between atoms: _206  and  _207
REMARK   87  A    between atoms: _206  and  _209
REMARK   88  A    between atoms: _209  and  _210
REMARK   89  A    between atoms: _214  and  _215
REMARK   90  A    between atoms: _220  and  _222
REMARK   91  A    between atoms: _222  and  _223
REMARK   92  A    between atoms: _222  and  _225
REMARK   93  A    between atoms: _228  and  _230
REMARK   94  A    between atoms: _230  and  _231
REMARK   95  A    between atoms: _230  and  _233
REMARK   96  A    between atoms: _233  and  _234
REMARK   97  A    between atoms: _239  and  _241
REMARK   98  A    between atoms: _241  and  _242
REMARK   99  A    between atoms: _241  and  _244
REMARK  100  A    between atoms: _244  and  _245
REMARK  101  A    between atoms: _248  and  _250
REMARK  102  A    between atoms: _250  and  _251
REMARK  103  A    between atoms: _250  and  _253
REMARK  104  A    between atoms: _253  and  _254
REMARK  105  A    between atoms: _257  and  _259
REMARK  106  A    between atoms: _259  and  _260
REMARK  107  A    between atoms: _262  and  _264
REMARK  108  A    between atoms: _264  and  _265
REMARK  109  A    between atoms: _264  and  _267
REMARK  110  A    between atoms: _267  and  _268
REMARK  111  A    between atoms: _268  and  _269
REMARK  112  A    between atoms: _269  and  _270
REMARK  113  A    between atoms: _279  and  _281
REMARK  114  A    between atoms: _281  and  _282
REMARK  115  A    between atoms: _281  and  _284
REMARK  116  A    between atoms: _284  and  _285
REMARK  117  A    between atoms: _290  and  _292
REMARK  118  A    between atoms: _292  and  _293
REMARK  119  A    between atoms: _292  and  _295
REMARK  120  A    between atoms: _295  and  _296
REMARK  121  A    between atoms: _296  and  _297
REMARK  122  A    between atoms: _297  and  _298
REMARK  123  A    between atoms: _308  and  _309
REMARK  124  A    between atoms: _314  and  _316
REMARK  125  A    between atoms: _316  and  _317
REMARK  126  A    between atoms: _316  and  _319
REMARK  127  A    between atoms: _319  and  _320
REMARK  128  A    between atoms: _323  and  _325
REMARK  129  A    between atoms: _325  and  _326
REMARK  130  A    between atoms: _325  and  _328
REMARK  131  A    between atoms: _328  and  _329
REMARK  132  A    between atoms: _332  and  _334
REMARK  133  A    between atoms: _334  and  _335
REMARK  134  A    between atoms: _334  and  _337
REMARK  135  A    between atoms: _337  and  _338
REMARK  136  A    between atoms: _341  and  _343
REMARK  137  A    between atoms: _343  and  _344
REMARK  138  A    between atoms: _343  and  _346
REMARK  139  A    between atoms: _346  and  _347
REMARK  140  A    between atoms: _350  and  _352
REMARK  141  A    between atoms: _352  and  _353
REMARK  142  A    between atoms: _352  and  _355
REMARK  143  A    between atoms: _355  and  _356
REMARK  144  A    between atoms: _359  and  _361
REMARK  145  A    between atoms: _361  and  _362
REMARK  146  A    between atoms: _364  and  _366
REMARK  147  A    between atoms: _366  and  _367
REMARK  148  A    between atoms: _370  and  _372
REMARK  149  A    between atoms: _372  and  _373
REMARK  150  A    between atoms: _372  and  _375
REMARK  151  A    between atoms: _375  and  _376
REMARK  152  A    between atoms: _379  and  _381
REMARK  153  A    between atoms: _381  and  _382
REMARK  154  A    between atoms: _381  and  _384
REMARK  155  A    between atoms: _384  and  _385
REMARK  156  A    between atoms: _388  and  _390
REMARK  157  A    between atoms: _390  and  _391
REMARK  158  A    between atoms: _390  and  _393
REMARK  159  A    between atoms: _393  and  _394
REMARK  160  A    between atoms: _397  and  _399
REMARK  161  A    between atoms: _399  and  _400
REMARK  162  A    between atoms: _399  and  _402
REMARK  163  A    between atoms: _405  and  _407
REMARK  164  A    between atoms: _407  and  _408
REMARK  165  A    between atoms: _407  and  _410
REMARK  166  A    between atoms: _410  and  _411
REMARK  167  A    between atoms: _411  and  _412
REMARK  168  A    between atoms: _412  and  _413
REMARK  169  A    between atoms: _413  and  _414
REMARK  170  A    between atoms: _418  and  _420
REMARK  171  A    between atoms: _420  and  _421
REMARK  172  A    between atoms: _420  and  _423
REMARK  173  A    between atoms: _423  and  _424
REMARK  174  A    between atoms: _424  and  _425
REMARK  175  A    between atoms: _427  and  _429
REMARK  176  A    between atoms: _429  and  _430
REMARK  177  A    between atoms: _429  and  _432
REMARK  178  A    between atoms: _432  and  _433
REMARK  179  A    between atoms: _436  and  _438
REMARK  180  A    between atoms: _438  and  _439
REMARK  181  A    between atoms: _441  and  _443
REMARK  182  A    between atoms: _443  and  _444
REMARK  183  A    between atoms: _446  and  _448
REMARK  184  A    between atoms: _448  and  _449
REMARK  185  A    between atoms: _448  and  _451
REMARK  186  A    between atoms: _454  and  _456
REMARK  187  A    between atoms: _456  and  _457
REMARK  188  A    between atoms: _459  and  _461
REMARK  189  A    between atoms: _461  and  _462
REMARK  190  A    between atoms: _464  and  _466
REMARK  191  A    between atoms: _466  and  _467
REMARK  192  A    between atoms: _466  and  _469
REMARK  193  A    between atoms: _469  and  _470
REMARK  194  A    between atoms: _476  and  _478
REMARK  195  A    between atoms: _478  and  _479
REMARK  196  A    between atoms: _478  and  _481
REMARK  197  A    between atoms: _481  and  _482
REMARK  198  A    between atoms: _485  and  _487
REMARK  199  A    between atoms: _487  and  _488
REMARK  200  A    between atoms: _487  and  _490
REMARK  201  A    between atoms: _493  and  _495
REMARK  202  A    between atoms: _495  and  _496
REMARK  203  A    between atoms: _495  and  _498
REMARK  204  A    between atoms: _498  and  _499
REMARK  205  A    between atoms: _503  and  _504
REMARK  206  A    between atoms: _509  and  _511
REMARK  207  A    between atoms: _511  and  _512
REMARK  208  A    between atoms: _511  and  _514
REMARK  209  A    between atoms: _514  and  _515
REMARK  210  A    between atoms: _519  and  _520
REMARK  211  A    between atoms: _525  and  _527
REMARK  212  A    between atoms: _527  and  _528
REMARK  213  A    between atoms: _527  and  _530
REMARK  214  A    between atoms: _533  and  _535
REMARK  215  A    between atoms: _535  and  _536
REMARK  216  A    between atoms: _535  and  _538
REMARK  217  A    between atoms: _538  and  _539
REMARK  218  A    between atoms: _544  and  _546
REMARK  219  A    between atoms: _546  and  _547
REMARK  220  A    between atoms: _546  and  _549
REMARK  221  A    between atoms: _549  and  _550
REMARK  222  A    between atoms: _553  and  _555
REMARK  223  A    between atoms: _555  and  _556
REMARK  224  A    between atoms: _555  and  _558
REMARK  225  A    between atoms: _558  and  _559
REMARK  226  A    between atoms: _562  and  _564
REMARK  227  A    between atoms: _564  and  _565
REMARK  228  A    between atoms: _567  and  _569
REMARK  229  A    between atoms: _569  and  _570
REMARK  230  A    between atoms: _569  and  _572
REMARK  231  A    between atoms: _572  and  _573
REMARK  232  A    between atoms: _573  and  _574
REMARK  233  A    between atoms: _574  and  _575
REMARK                            x       y       z     vdW  Elec       q    Type
REMARK                         _______ _______ _______ _____ _____    ______ ____
ROOT
ATOM      1  O   HOH     1       7.238  15.903  18.258  0.00  0.00    +0.000 OA
ENDROOT
TORSDOF 0
