REMARK  Name = ../refined-set-2016/3rux/3rux_pocket.pdb
REMARK  239 active torsions:
REMARK  status: ('A' for Active; 'I' for Inactive)
REMARK    1  A    between atoms: _1  and  _3
REMARK    2  A    between atoms: _3  and  _4
REMARK    3  A    between atoms: _3  and  _6
REMARK    4  A    between atoms: _6  and  _7
REMARK    5  A    between atoms: _10  and  _12
REMARK    6  A    between atoms: _12  and  _13
REMARK    7  A    between atoms: _15  and  _17
REMARK    8  A    between atoms: _17  and  _18
REMARK    9  A    between atoms: _17  and  _20
REMARK   10  A    between atoms: _20  and  _21
REMARK   11  A    between atoms: _23  and  _25
REMARK   12  A    between atoms: _25  and  _26
REMARK   13  A    between atoms: _25  and  _28
REMARK   14  A    between atoms: _28  and  _29
REMARK   15  A    between atoms: _32  and  _34
REMARK   16  A    between atoms: _34  and  _35
REMARK   17  A    between atoms: _34  and  _37
REMARK   18  A    between atoms: _37  and  _38
REMARK   19  A    between atoms: _43  and  _45
REMARK   20  A    between atoms: _45  and  _46
REMARK   21  A    between atoms: _49  and  _51
REMARK   22  A    between atoms: _51  and  _52
REMARK   23  A    between atoms: _51  and  _54
REMARK   24  A    between atoms: _54  and  _55
REMARK   25  A    between atoms: _58  and  _60
REMARK   26  A    between atoms: _60  and  _61
REMARK   27  A    between atoms: _60  and  _63
REMARK   28  A    between atoms: _63  and  _64
REMARK   29  A    between atoms: _67  and  _69
REMARK   30  A    between atoms: _69  and  _70
REMARK   31  A    between atoms: _69  and  _72
REMARK   32  A    between atoms: _72  and  _73
REMARK   33  A    between atoms: _76  and  _78
REMARK   34  A    between atoms: _78  and  _79
REMARK   35  A    between atoms: _78  and  _81
REMARK   36  A    between atoms: _81  and  _82
REMARK   37  A    between atoms: _85  and  _87
REMARK   38  A    between atoms: _87  and  _88
REMARK   39  A    between atoms: _91  and  _93
REMARK   40  A    between atoms: _93  and  _94
REMARK   41  A    between atoms: _93  and  _96
REMARK   42  A    between atoms: _96  and  _97
REMARK   43  A    between atoms: _97  and  _98
REMARK   44  A    between atoms: _103  and  _105
REMARK   45  A    between atoms: _105  and  _106
REMARK   46  A    between atoms: _105  and  _108
REMARK   47  A    between atoms: _108  and  _109
REMARK   48  A    between atoms: _112  and  _114
REMARK   49  A    between atoms: _114  and  _115
REMARK   50  A    between atoms: _118  and  _120
REMARK   51  A    between atoms: _120  and  _121
REMARK   52  A    between atoms: _123  and  _125
REMARK   53  A    between atoms: _125  and  _126
REMARK   54  A    between atoms: _125  and  _128
REMARK   55  A    between atoms: _128  and  _129
REMARK   56  A    between atoms: _129  and  _130
REMARK   57  A    between atoms: _130  and  _131
REMARK   58  A    between atoms: _140  and  _142
REMARK   59  A    between atoms: _142  and  _143
REMARK   60  A    between atoms: _145  and  _147
REMARK   61  A    between atoms: _147  and  _148
REMARK   62  A    between atoms: _147  and  _150
REMARK   63  A    between atoms: _150  and  _151
REMARK   64  A    between atoms: _151  and  _152
REMARK   65  A    between atoms: _152  and  _153
REMARK   66  A    between atoms: _162  and  _164
REMARK   67  A    between atoms: _164  and  _165
REMARK   68  A    between atoms: _164  and  _167
REMARK   69  A    between atoms: _167  and  _168
REMARK   70  A    between atoms: _173  and  _175
REMARK   71  A    between atoms: _175  and  _176
REMARK   72  A    between atoms: _178  and  _180
REMARK   73  A    between atoms: _180  and  _181
REMARK   74  A    between atoms: _180  and  _183
REMARK   75  A    between atoms: _183  and  _184
REMARK   76  A    between atoms: _184  and  _185
REMARK   77  A    between atoms: _185  and  _186
REMARK   78  A    between atoms: _195  and  _197
REMARK   79  A    between atoms: _197  and  _198
REMARK   80  A    between atoms: _200  and  _202
REMARK   81  A    between atoms: _202  and  _203
REMARK   82  A    between atoms: _202  and  _205
REMARK   83  A    between atoms: _205  and  _206
REMARK   84  A    between atoms: _216  and  _218
REMARK   85  A    between atoms: _218  and  _219
REMARK   86  A    between atoms: _222  and  _224
REMARK   87  A    between atoms: _224  and  _225
REMARK   88  A    between atoms: _228  and  _230
REMARK   89  A    between atoms: _230  and  _231
REMARK   90  A    between atoms: _230  and  _233
REMARK   91  A    between atoms: _233  and  _234
REMARK   92  A    between atoms: _237  and  _239
REMARK   93  A    between atoms: _239  and  _240
REMARK   94  A    between atoms: _239  and  _242
REMARK   95  A    between atoms: _242  and  _243
REMARK   96  A    between atoms: _243  and  _244
REMARK   97  A    between atoms: _249  and  _251
REMARK   98  A    between atoms: _251  and  _252
REMARK   99  A    between atoms: _251  and  _254
REMARK  100  A    between atoms: _254  and  _255
REMARK  101  A    between atoms: _258  and  _260
REMARK  102  A    between atoms: _260  and  _261
REMARK  103  A    between atoms: _260  and  _263
REMARK  104  A    between atoms: _263  and  _264
REMARK  105  A    between atoms: _267  and  _269
REMARK  106  A    between atoms: _269  and  _270
REMARK  107  A    between atoms: _269  and  _272
REMARK  108  A    between atoms: _272  and  _273
REMARK  109  A    between atoms: _276  and  _278
REMARK  110  A    between atoms: _278  and  _279
REMARK  111  A    between atoms: _278  and  _281
REMARK  112  A    between atoms: _281  and  _282
REMARK  113  A    between atoms: _284  and  _286
REMARK  114  A    between atoms: _286  and  _287
REMARK  115  A    between atoms: _286  and  _289
REMARK  116  A    between atoms: _292  and  _294
REMARK  117  A    between atoms: _294  and  _295
REMARK  118  A    between atoms: _294  and  _297
REMARK  119  A    between atoms: _297  and  _298
REMARK  120  A    between atoms: _298  and  _299
REMARK  121  A    between atoms: _299  and  _300
REMARK  122  A    between atoms: _300  and  _301
REMARK  123  A    between atoms: _305  and  _307
REMARK  124  A    between atoms: _307  and  _308
REMARK  125  A    between atoms: _307  and  _310
REMARK  126  A    between atoms: _310  and  _311
REMARK  127  A    between atoms: _322  and  _323
REMARK  128  A    between atoms: _328  and  _330
REMARK  129  A    between atoms: _330  and  _331
REMARK  130  A    between atoms: _330  and  _333
REMARK  131  A    between atoms: _333  and  _334
REMARK  132  A    between atoms: _339  and  _341
REMARK  133  A    between atoms: _341  and  _342
REMARK  134  A    between atoms: _341  and  _344
REMARK  135  A    between atoms: _344  and  _345
REMARK  136  A    between atoms: _348  and  _350
REMARK  137  A    between atoms: _350  and  _351
REMARK  138  A    between atoms: _350  and  _353
REMARK  139  A    between atoms: _356  and  _358
REMARK  140  A    between atoms: _358  and  _359
REMARK  141  A    between atoms: _361  and  _363
REMARK  142  A    between atoms: _363  and  _364
REMARK  143  A    between atoms: _363  and  _366
REMARK  144  A    between atoms: _366  and  _367
REMARK  145  A    between atoms: _367  and  _368
REMARK  146  A    between atoms: _368  and  _369
REMARK  147  A    between atoms: _369  and  _370
REMARK  148  A    between atoms: _374  and  _376
REMARK  149  A    between atoms: _376  and  _377
REMARK  150  A    between atoms: _376  and  _379
REMARK  151  A    between atoms: _379  and  _380
REMARK  152  A    between atoms: _383  and  _385
REMARK  153  A    between atoms: _385  and  _386
REMARK  154  A    between atoms: _389  and  _391
REMARK  155  A    between atoms: _391  and  _392
REMARK  156  A    between atoms: _394  and  _396
REMARK  157  A    between atoms: _396  and  _397
REMARK  158  A    between atoms: _396  and  _399
REMARK  159  A    between atoms: _399  and  _400
REMARK  160  A    between atoms: _403  and  _405
REMARK  161  A    between atoms: _405  and  _406
REMARK  162  A    between atoms: _405  and  _408
REMARK  163  A    between atoms: _408  and  _409
REMARK  164  A    between atoms: _412  and  _414
REMARK  165  A    between atoms: _414  and  _415
REMARK  166  A    between atoms: _418  and  _420
REMARK  167  A    between atoms: _420  and  _421
REMARK  168  A    between atoms: _420  and  _423
REMARK  169  A    between atoms: _423  and  _424
REMARK  170  A    between atoms: _424  and  _425
REMARK  171  A    between atoms: _428  and  _430
REMARK  172  A    between atoms: _430  and  _431
REMARK  173  A    between atoms: _430  and  _433
REMARK  174  A    between atoms: _436  and  _438
REMARK  175  A    between atoms: _438  and  _439
REMARK  176  A    between atoms: _438  and  _441
REMARK  177  A    between atoms: _441  and  _442
REMARK  178  A    between atoms: _445  and  _447
REMARK  179  A    between atoms: _447  and  _448
REMARK  180  A    between atoms: _450  and  _452
REMARK  181  A    between atoms: _452  and  _453
REMARK  182  A    between atoms: _452  and  _455
REMARK  183  A    between atoms: _458  and  _460
REMARK  184  A    between atoms: _460  and  _461
REMARK  185  A    between atoms: _463  and  _465
REMARK  186  A    between atoms: _465  and  _466
REMARK  187  A    between atoms: _465  and  _468
REMARK  188  A    between atoms: _468  and  _469
REMARK  189  A    between atoms: _472  and  _474
REMARK  190  A    between atoms: _474  and  _475
REMARK  191  A    between atoms: _474  and  _477
REMARK  192  A    between atoms: _477  and  _478
REMARK  193  A    between atoms: _483  and  _485
REMARK  194  A    between atoms: _485  and  _486
REMARK  195  A    between atoms: _485  and  _488
REMARK  196  A    between atoms: _491  and  _493
REMARK  197  A    between atoms: _493  and  _494
REMARK  198  A    between atoms: _493  and  _496
REMARK  199  A    between atoms: _496  and  _497
REMARK  200  A    between atoms: _497  and  _498
REMARK  201  A    between atoms: _503  and  _505
REMARK  202  A    between atoms: _505  and  _506
REMARK  203  A    between atoms: _510  and  _511
REMARK  204  A    between atoms: _516  and  _518
REMARK  205  A    between atoms: _518  and  _519
REMARK  206  A    between atoms: _518  and  _521
REMARK  207  A    between atoms: _521  and  _522
REMARK  208  A    between atoms: _522  and  _523
REMARK  209  A    between atoms: _526  and  _528
REMARK  210  A    between atoms: _528  and  _529
REMARK  211  A    between atoms: _528  and  _531
REMARK  212  A    between atoms: _534  and  _536
REMARK  213  A    between atoms: _536  and  _537
REMARK  214  A    between atoms: _536  and  _539
REMARK  215  A    between atoms: _539  and  _540
REMARK  216  A    between atoms: _544  and  _545
REMARK  217  A    between atoms: _550  and  _552
REMARK  218  A    between atoms: _552  and  _553
REMARK  219  A    between atoms: _552  and  _555
REMARK  220  A    between atoms: _555  and  _556
REMARK  221  A    between atoms: _559  and  _561
REMARK  222  A    between atoms: _561  and  _562
REMARK  223  A    between atoms: _565  and  _567
REMARK  224  A    between atoms: _567  and  _568
REMARK  225  A    between atoms: _567  and  _570
REMARK  226  A    between atoms: _570  and  _571
REMARK  227  A    between atoms: _574  and  _576
REMARK  228  A    between atoms: _576  and  _577
REMARK  229  A    between atoms: _576  and  _579
REMARK  230  A    between atoms: _579  and  _580
REMARK  231  A    between atoms: _582  and  _584
REMARK  232  A    between atoms: _584  and  _585
REMARK  233  A    between atoms: _587  and  _589
REMARK  234  A    between atoms: _589  and  _590
REMARK  235  A    between atoms: _589  and  _592
REMARK  236  A    between atoms: _592  and  _593
REMARK  237  A    between atoms: _596  and  _598
REMARK  238  A    between atoms: _598  and  _599
REMARK  239  A    between atoms: _598  and  _601
REMARK                            x       y       z     vdW  Elec       q    Type
REMARK                         _______ _______ _______ _____ _____    ______ ____
ROOT
ATOM      1  C   THR A   4       1.532 -13.581  17.456  0.00  0.00    +0.243 C 
ATOM      2  O   THR A   4       1.844 -14.751  17.682  0.00  0.00    -0.273 OA
ATOM      3  N   ASN A   5       1.384 -13.107  16.223  0.00  0.00    -0.297 N 
ATOM      4  H   ASN A   5       1.080 -12.122  16.083  0.00  0.00    +0.150 HD
ENDROOT
BRANCH   3   5
ATOM      5  CA  ASN A   5       1.643 -13.954  15.067  0.00  0.00    +0.158 C 
BRANCH   5   6
ATOM      6  C   ASN A   5       3.111 -14.368  15.019  0.00  0.00    +0.241 C 
ATOM      7  N   ALA A   6       4.004 -13.407  15.236  0.00  0.00    -0.297 N 
ATOM      8  H   ALA A   6       3.678 -12.434  15.406  0.00  0.00    +0.150 HD
ATOM      9  O   ASN A   5       3.429 -15.538  14.797  0.00  0.00    -0.273 OA
BRANCH   7  10
ATOM     10  CA  ALA A   6       5.432 -13.697  15.239  0.00  0.00    +0.149 C 
ATOM     11  CB  ALA A   6       6.241 -12.415  15.407  0.00  0.00    +0.031 C 
BRANCH  10  12
ATOM     12  C   ALA A   6       5.763 -14.688  16.347  0.00  0.00    +0.241 C 
ATOM     13  N   ASP A   7       5.132 -14.510  17.505  0.00  0.00    -0.297 N 
ATOM     14  H   ASP A   7       4.450 -13.731  17.601  0.00  0.00    +0.150 HD
ATOM     15  O   ALA A   6       6.563 -15.603  16.155  0.00  0.00    -0.273 OA
BRANCH  13  16
ATOM     16  CA  ASP A   7       5.382 -15.390  18.642  0.00  0.00    +0.160 C 
BRANCH  16  17
ATOM     17  C   ASP A   7       5.038 -16.852  18.353  0.00  0.00    +0.241 C 
ATOM     18  O   ASP A   7       5.832 -17.745  18.646  0.00  0.00    -0.273 OA
ATOM     19  N   LEU A   8       3.859 -17.099  17.787  0.00  0.00    -0.298 N 
ATOM     20  H   LEU A   8       3.220 -16.310  17.564  0.00  0.00    +0.150 HD
BRANCH  19  21
ATOM     21  CA  LEU A   8       3.453 -18.470  17.475  0.00  0.00    +0.137 C 
BRANCH  21  22
ATOM     22  C   LEU A   8       4.305 -19.072  16.358  0.00  0.00    +0.227 C 
ATOM     23  O   LEU A   8       4.608 -20.267  16.372  0.00  0.00    -0.286 OA
ENDBRANCH  21  22
BRANCH  21  24
ATOM     24  CB  LEU A   8       1.965 -18.549  17.119  0.00  0.00    +0.028 C 
BRANCH  24  25
ATOM     25  CG  LEU A   8       0.971 -18.451  18.279  0.00  0.00    +0.002 C 
ATOM     26  CD2 LEU A   8       1.484 -19.211  19.496  0.00  0.00    +0.000 C 
ATOM     27  CD1 LEU A   8      -0.389 -18.984  17.849  0.00  0.00    +0.000 C 
ENDBRANCH  24  25
ENDBRANCH  21  24
ENDBRANCH  19  21
ENDBRANCH  16  17
BRANCH  16  28
ATOM     28  CB  ASP A   7       4.632 -14.909  19.887  0.00  0.00    +0.143 C 
BRANCH  28  29
ATOM     29  CG  ASP A   7       5.160 -13.589  20.416  0.00  0.00    +0.367 C 
ATOM     30  OD2 ASP A   7       4.491 -12.994  21.287  0.00  0.00    -0.246 OA
ATOM     31  OD1 ASP A   7       6.242 -13.149  19.974  0.00  0.00    -0.246 OA
ENDBRANCH  28  29
ENDBRANCH  16  28
ENDBRANCH  13  16
ENDBRANCH  10  12
ENDBRANCH   7  10
ENDBRANCH   5   6
BRANCH   5  32
ATOM     32  CB  ASN A   5       1.241 -13.253  13.767  0.00  0.00    +0.114 C 
BRANCH  32  33
ATOM     33  CG  ASN A   5      -0.114 -13.712  13.247  0.00  0.00    +0.222 C 
ATOM     34  OD1 ASN A   5      -1.030 -14.003  14.019  0.00  0.00    -0.275 OA
ATOM     35  ND2 ASN A   5      -0.242 -13.782  11.928  0.00  0.00    -0.329 N 
ATOM     36 HD21 ASN A   5      -1.142 -14.092  11.509  0.00  0.00    +0.145 HD
ATOM     37 HD22 ASN A   5       0.557 -13.527  11.314  0.00  0.00    +0.145 HD
ENDBRANCH  32  33
ENDBRANCH   5  32
ENDBRANCH   3   5
BRANCH   1  38
ATOM     38  CA  THR A   4       1.306 -12.598  18.602  0.00  0.00    +0.176 C 
BRANCH  38  40
ATOM     39  C   SER A   3       3.024 -11.011  17.952  0.00  0.00    +0.243 C 
ATOM     40  N   THR A   4       1.748 -11.253  18.240  0.00  0.00    -0.295 N 
ATOM     41  H   THR A   4       1.057 -10.476  18.207  0.00  0.00    +0.150 HD
ATOM     42  O   SER A   3       3.891 -11.882  17.988  0.00  0.00    -0.273 OA
BRANCH  39  43
ATOM     43  CA  SER A   3       3.386  -9.582  17.576  0.00  0.00    +0.178 C 
BRANCH  43  45
ATOM     44  C   GLY A   2       4.555  -7.753  18.694  0.00  0.00    +0.243 C 
ATOM     45  N   SER A   3       4.378  -9.057  18.504  0.00  0.00    -0.295 N 
ATOM     46  H   SER A   3       4.969  -9.726  19.037  0.00  0.00    +0.150 HD
ATOM     47  O   GLY A   2       3.897  -6.895  18.108  0.00  0.00    -0.273 OA
BRANCH  44  48
ATOM     48  CA  GLY A   2       5.623  -7.365  19.700  0.00  0.00    +0.176 C 
BRANCH  48  51
ATOM     49  C   THR A   1       4.452  -7.763  21.790  0.00  0.00    +0.241 C 
ATOM     50  O   THR A   1       3.661  -6.840  21.580  0.00  0.00    -0.274 OA
ATOM     51  N   GLY A   2       5.446  -8.061  20.962  0.00  0.00    -0.295 N 
ATOM     52  H   GLY A   2       6.115  -8.813  21.224  0.00  0.00    +0.150 HD
BRANCH  49  53
ATOM     53  CA  THR A   1       4.335  -8.621  23.047  0.00  0.00    +0.172 C 
BRANCH  53  54
ATOM     54  N   THR A   1       3.372  -8.032  23.972  0.00  0.00    -0.236 NA
ATOM     55  H   THR A   1       2.638  -7.396  23.601  0.00  0.00    +0.142 HD
ENDBRANCH  53  54
BRANCH  53  56
ATOM     56  CB  THR A   1       3.961 -10.064  22.663  0.00  0.00    +0.135 C 
ATOM     57  CG2 THR A   1       2.797 -10.075  21.676  0.00  0.00    +0.034 C 
BRANCH  56  58
ATOM     58  OG1 THR A   1       5.094 -10.713  22.072  0.00  0.00    -0.383 OA
ATOM     59  HG1 THR A   1       4.850 -11.641  21.826  0.00  0.00    +0.210 HD
ENDBRANCH  56  58
ENDBRANCH  53  56
ENDBRANCH  49  53
ENDBRANCH  48  51
ENDBRANCH  44  48
ENDBRANCH  43  45
BRANCH  43  60
ATOM     60  CB  SER A   3       3.929  -9.543  16.145  0.00  0.00    +0.166 C 
BRANCH  60  61
ATOM     61  OG  SER A   3       3.113 -10.306  15.267  0.00  0.00    -0.380 OA
ATOM     62  H   SER A   3       2.194  -9.937  15.268  0.00  0.00    +0.211 HD
ENDBRANCH  60  61
ENDBRANCH  43  60
ENDBRANCH  39  43
ENDBRANCH  38  40
BRANCH  38  63
ATOM     63  CB  THR A   4      -0.174 -12.636  19.050  0.00  0.00    +0.137 C 
ATOM     64  CG2 THR A   4      -0.374 -11.794  20.302  0.00  0.00    +0.034 C 
BRANCH  63  65
ATOM     65  OG1 THR A   4      -1.019 -12.142  18.002  0.00  0.00    -0.382 OA
ATOM     66  HG1 THR A   4      -0.908 -12.707  17.196  0.00  0.00    +0.210 HD
ENDBRANCH  63  65
ENDBRANCH  38  63
ENDBRANCH   1  38
TORSDOF 28
REMARK  Name = ../refined-set-2016/3rux/3rux_pocket.pdb
REMARK  239 active torsions:
REMARK  status: ('A' for Active; 'I' for Inactive)
REMARK    1  A    between atoms: _1  and  _3
REMARK    2  A    between atoms: _3  and  _4
REMARK    3  A    between atoms: _3  and  _6
REMARK    4  A    between atoms: _6  and  _7
REMARK    5  A    between atoms: _10  and  _12
REMARK    6  A    between atoms: _12  and  _13
REMARK    7  A    between atoms: _15  and  _17
REMARK    8  A    between atoms: _17  and  _18
REMARK    9  A    between atoms: _17  and  _20
REMARK   10  A    between atoms: _20  and  _21
REMARK   11  A    between atoms: _23  and  _25
REMARK   12  A    between atoms: _25  and  _26
REMARK   13  A    between atoms: _25  and  _28
REMARK   14  A    between atoms: _28  and  _29
REMARK   15  A    between atoms: _32  and  _34
REMARK   16  A    between atoms: _34  and  _35
REMARK   17  A    between atoms: _34  and  _37
REMARK   18  A    between atoms: _37  and  _38
REMARK   19  A    between atoms: _43  and  _45
REMARK   20  A    between atoms: _45  and  _46
REMARK   21  A    between atoms: _49  and  _51
REMARK   22  A    between atoms: _51  and  _52
REMARK   23  A    between atoms: _51  and  _54
REMARK   24  A    between atoms: _54  and  _55
REMARK   25  A    between atoms: _58  and  _60
REMARK   26  A    between atoms: _60  and  _61
REMARK   27  A    between atoms: _60  and  _63
REMARK   28  A    between atoms: _63  and  _64
REMARK   29  A    between atoms: _67  and  _69
REMARK   30  A    between atoms: _69  and  _70
REMARK   31  A    between atoms: _69  and  _72
REMARK   32  A    between atoms: _72  and  _73
REMARK   33  A    between atoms: _76  and  _78
REMARK   34  A    between atoms: _78  and  _79
REMARK   35  A    between atoms: _78  and  _81
REMARK   36  A    between atoms: _81  and  _82
REMARK   37  A    between atoms: _85  and  _87
REMARK   38  A    between atoms: _87  and  _88
REMARK   39  A    between atoms: _91  and  _93
REMARK   40  A    between atoms: _93  and  _94
REMARK   41  A    between atoms: _93  and  _96
REMARK   42  A    between atoms: _96  and  _97
REMARK   43  A    between atoms: _97  and  _98
REMARK   44  A    between atoms: _103  and  _105
REMARK   45  A    between atoms: _105  and  _106
REMARK   46  A    between atoms: _105  and  _108
REMARK   47  A    between atoms: _108  and  _109
REMARK   48  A    between atoms: _112  and  _114
REMARK   49  A    between atoms: _114  and  _115
REMARK   50  A    between atoms: _118  and  _120
REMARK   51  A    between atoms: _120  and  _121
REMARK   52  A    between atoms: _123  and  _125
REMARK   53  A    between atoms: _125  and  _126
REMARK   54  A    between atoms: _125  and  _128
REMARK   55  A    between atoms: _128  and  _129
REMARK   56  A    between atoms: _129  and  _130
REMARK   57  A    between atoms: _130  and  _131
REMARK   58  A    between atoms: _140  and  _142
REMARK   59  A    between atoms: _142  and  _143
REMARK   60  A    between atoms: _145  and  _147
REMARK   61  A    between atoms: _147  and  _148
REMARK   62  A    between atoms: _147  and  _150
REMARK   63  A    between atoms: _150  and  _151
REMARK   64  A    between atoms: _151  and  _152
REMARK   65  A    between atoms: _152  and  _153
REMARK   66  A    between atoms: _162  and  _164
REMARK   67  A    between atoms: _164  and  _165
REMARK   68  A    between atoms: _164  and  _167
REMARK   69  A    between atoms: _167  and  _168
REMARK   70  A    between atoms: _173  and  _175
REMARK   71  A    between atoms: _175  and  _176
REMARK   72  A    between atoms: _178  and  _180
REMARK   73  A    between atoms: _180  and  _181
REMARK   74  A    between atoms: _180  and  _183
REMARK   75  A    between atoms: _183  and  _184
REMARK   76  A    between atoms: _184  and  _185
REMARK   77  A    between atoms: _185  and  _186
REMARK   78  A    between atoms: _195  and  _197
REMARK   79  A    between atoms: _197  and  _198
REMARK   80  A    between atoms: _200  and  _202
REMARK   81  A    between atoms: _202  and  _203
REMARK   82  A    between atoms: _202  and  _205
REMARK   83  A    between atoms: _205  and  _206
REMARK   84  A    between atoms: _216  and  _218
REMARK   85  A    between atoms: _218  and  _219
REMARK   86  A    between atoms: _222  and  _224
REMARK   87  A    between atoms: _224  and  _225
REMARK   88  A    between atoms: _228  and  _230
REMARK   89  A    between atoms: _230  and  _231
REMARK   90  A    between atoms: _230  and  _233
REMARK   91  A    between atoms: _233  and  _234
REMARK   92  A    between atoms: _237  and  _239
REMARK   93  A    between atoms: _239  and  _240
REMARK   94  A    between atoms: _239  and  _242
REMARK   95  A    between atoms: _242  and  _243
REMARK   96  A    between atoms: _243  and  _244
REMARK   97  A    between atoms: _249  and  _251
REMARK   98  A    between atoms: _251  and  _252
REMARK   99  A    between atoms: _251  and  _254
REMARK  100  A    between atoms: _254  and  _255
REMARK  101  A    between atoms: _258  and  _260
REMARK  102  A    between atoms: _260  and  _261
REMARK  103  A    between atoms: _260  and  _263
REMARK  104  A    between atoms: _263  and  _264
REMARK  105  A    between atoms: _267  and  _269
REMARK  106  A    between atoms: _269  and  _270
REMARK  107  A    between atoms: _269  and  _272
REMARK  108  A    between atoms: _272  and  _273
REMARK  109  A    between atoms: _276  and  _278
REMARK  110  A    between atoms: _278  and  _279
REMARK  111  A    between atoms: _278  and  _281
REMARK  112  A    between atoms: _281  and  _282
REMARK  113  A    between atoms: _284  and  _286
REMARK  114  A    between atoms: _286  and  _287
REMARK  115  A    between atoms: _286  and  _289
REMARK  116  A    between atoms: _292  and  _294
REMARK  117  A    between atoms: _294  and  _295
REMARK  118  A    between atoms: _294  and  _297
REMARK  119  A    between atoms: _297  and  _298
REMARK  120  A    between atoms: _298  and  _299
REMARK  121  A    between atoms: _299  and  _300
REMARK  122  A    between atoms: _300  and  _301
REMARK  123  A    between atoms: _305  and  _307
REMARK  124  A    between atoms: _307  and  _308
REMARK  125  A    between atoms: _307  and  _310
REMARK  126  A    between atoms: _310  and  _311
REMARK  127  A    between atoms: _322  and  _323
REMARK  128  A    between atoms: _328  and  _330
REMARK  129  A    between atoms: _330  and  _331
REMARK  130  A    between atoms: _330  and  _333
REMARK  131  A    between atoms: _333  and  _334
REMARK  132  A    between atoms: _339  and  _341
REMARK  133  A    between atoms: _341  and  _342
REMARK  134  A    between atoms: _341  and  _344
REMARK  135  A    between atoms: _344  and  _345
REMARK  136  A    between atoms: _348  and  _350
REMARK  137  A    between atoms: _350  and  _351
REMARK  138  A    between atoms: _350  and  _353
REMARK  139  A    between atoms: _356  and  _358
REMARK  140  A    between atoms: _358  and  _359
REMARK  141  A    between atoms: _361  and  _363
REMARK  142  A    between atoms: _363  and  _364
REMARK  143  A    between atoms: _363  and  _366
REMARK  144  A    between atoms: _366  and  _367
REMARK  145  A    between atoms: _367  and  _368
REMARK  146  A    between atoms: _368  and  _369
REMARK  147  A    between atoms: _369  and  _370
REMARK  148  A    between atoms: _374  and  _376
REMARK  149  A    between atoms: _376  and  _377
REMARK  150  A    between atoms: _376  and  _379
REMARK  151  A    between atoms: _379  and  _380
REMARK  152  A    between atoms: _383  and  _385
REMARK  153  A    between atoms: _385  and  _386
REMARK  154  A    between atoms: _389  and  _391
REMARK  155  A    between atoms: _391  and  _392
REMARK  156  A    between atoms: _394  and  _396
REMARK  157  A    between atoms: _396  and  _397
REMARK  158  A    between atoms: _396  and  _399
REMARK  159  A    between atoms: _399  and  _400
REMARK  160  A    between atoms: _403  and  _405
REMARK  161  A    between atoms: _405  and  _406
REMARK  162  A    between atoms: _405  and  _408
REMARK  163  A    between atoms: _408  and  _409
REMARK  164  A    between atoms: _412  and  _414
REMARK  165  A    between atoms: _414  and  _415
REMARK  166  A    between atoms: _418  and  _420
REMARK  167  A    between atoms: _420  and  _421
REMARK  168  A    between atoms: _420  and  _423
REMARK  169  A    between atoms: _423  and  _424
REMARK  170  A    between atoms: _424  and  _425
REMARK  171  A    between atoms: _428  and  _430
REMARK  172  A    between atoms: _430  and  _431
REMARK  173  A    between atoms: _430  and  _433
REMARK  174  A    between atoms: _436  and  _438
REMARK  175  A    between atoms: _438  and  _439
REMARK  176  A    between atoms: _438  and  _441
REMARK  177  A    between atoms: _441  and  _442
REMARK  178  A    between atoms: _445  and  _447
REMARK  179  A    between atoms: _447  and  _448
REMARK  180  A    between atoms: _450  and  _452
REMARK  181  A    between atoms: _452  and  _453
REMARK  182  A    between atoms: _452  and  _455
REMARK  183  A    between atoms: _458  and  _460
REMARK  184  A    between atoms: _460  and  _461
REMARK  185  A    between atoms: _463  and  _465
REMARK  186  A    between atoms: _465  and  _466
REMARK  187  A    between atoms: _465  and  _468
REMARK  188  A    between atoms: _468  and  _469
REMARK  189  A    between atoms: _472  and  _474
REMARK  190  A    between atoms: _474  and  _475
REMARK  191  A    between atoms: _474  and  _477
REMARK  192  A    between atoms: _477  and  _478
REMARK  193  A    between atoms: _483  and  _485
REMARK  194  A    between atoms: _485  and  _486
REMARK  195  A    between atoms: _485  and  _488
REMARK  196  A    between atoms: _491  and  _493
REMARK  197  A    between atoms: _493  and  _494
REMARK  198  A    between atoms: _493  and  _496
REMARK  199  A    between atoms: _496  and  _497
REMARK  200  A    between atoms: _497  and  _498
REMARK  201  A    between atoms: _503  and  _505
REMARK  202  A    between atoms: _505  and  _506
REMARK  203  A    between atoms: _510  and  _511
REMARK  204  A    between atoms: _516  and  _518
REMARK  205  A    between atoms: _518  and  _519
REMARK  206  A    between atoms: _518  and  _521
REMARK  207  A    between atoms: _521  and  _522
REMARK  208  A    between atoms: _522  and  _523
REMARK  209  A    between atoms: _526  and  _528
REMARK  210  A    between atoms: _528  and  _529
REMARK  211  A    between atoms: _528  and  _531
REMARK  212  A    between atoms: _534  and  _536
REMARK  213  A    between atoms: _536  and  _537
REMARK  214  A    between atoms: _536  and  _539
REMARK  215  A    between atoms: _539  and  _540
REMARK  216  A    between atoms: _544  and  _545
REMARK  217  A    between atoms: _550  and  _552
REMARK  218  A    between atoms: _552  and  _553
REMARK  219  A    between atoms: _552  and  _555
REMARK  220  A    between atoms: _555  and  _556
REMARK  221  A    between atoms: _559  and  _561
REMARK  222  A    between atoms: _561  and  _562
REMARK  223  A    between atoms: _565  and  _567
REMARK  224  A    between atoms: _567  and  _568
REMARK  225  A    between atoms: _567  and  _570
REMARK  226  A    between atoms: _570  and  _571
REMARK  227  A    between atoms: _574  and  _576
REMARK  228  A    between atoms: _576  and  _577
REMARK  229  A    between atoms: _576  and  _579
REMARK  230  A    between atoms: _579  and  _580
REMARK  231  A    between atoms: _582  and  _584
REMARK  232  A    between atoms: _584  and  _585
REMARK  233  A    between atoms: _587  and  _589
REMARK  234  A    between atoms: _589  and  _590
REMARK  235  A    between atoms: _589  and  _592
REMARK  236  A    between atoms: _592  and  _593
REMARK  237  A    between atoms: _596  and  _598
REMARK  238  A    between atoms: _598  and  _599
REMARK  239  A    between atoms: _598  and  _601
REMARK                            x       y       z     vdW  Elec       q    Type
REMARK                         _______ _______ _______ _____ _____    ______ ____
ROOT
ATOM      1  CA  ILE A   2      -3.850 -13.534  23.419  0.00  0.00    +0.148 C 
ENDROOT
BRANCH   1   3
ATOM      2  C   LEU A   1      -2.830 -15.384  22.217  0.00  0.00    +0.238 C 
ATOM      3  N   ILE A   2      -3.155 -14.811  23.370  0.00  0.00    -0.297 N 
ATOM      4  H   ILE A   2      -2.906 -15.287  24.260  0.00  0.00    +0.150 HD
ATOM      5  O   LEU A   1      -3.106 -14.899  21.123  0.00  0.00    -0.274 OA
BRANCH   2   6
ATOM      6  CA  LEU A   1      -2.093 -16.709  22.311  0.00  0.00    +0.145 C 
BRANCH   6   7
ATOM      7  N   LEU A   1      -2.856 -17.740  21.621  0.00  0.00    -0.238 NA
ATOM      8  H   LEU A   1      -3.132 -17.585  20.630  0.00  0.00    +0.142 HD
ENDBRANCH   6   7
BRANCH   6   9
ATOM      9  CB  LEU A   1      -0.695 -16.564  21.703  0.00  0.00    +0.026 C 
BRANCH   9  10
ATOM     10  CG  LEU A   1       0.146 -15.397  22.237  0.00  0.00    +0.002 C 
ATOM     11  CD2 LEU A   1       0.417 -15.542  23.730  0.00  0.00    +0.000 C 
ATOM     12  CD1 LEU A   1       1.451 -15.288  21.457  0.00  0.00    +0.000 C 
ENDBRANCH   9  10
ENDBRANCH   6   9
ENDBRANCH   2   6
ENDBRANCH   1   3
BRANCH   1  13
ATOM     13  C   ILE A   2      -2.970 -12.504  24.112  0.00  0.00    +0.241 C 
ATOM     14  O   ILE A   2      -2.373 -12.787  25.149  0.00  0.00    -0.273 OA
ATOM     15  N   ALA A   3      -2.888 -11.308  23.538  0.00  0.00    -0.298 N 
ATOM     16  H   ALA A   3      -3.405 -11.127  22.654  0.00  0.00    +0.150 HD
BRANCH  15  17
ATOM     17  CA  ALA A   3      -2.083 -10.246  24.130  0.00  0.00    +0.137 C 
ATOM     18  CB  ALA A   3      -0.972  -9.825  23.173  0.00  0.00    +0.030 C 
BRANCH  17  19
ATOM     19  C   ALA A   3      -2.950  -9.048  24.504  0.00  0.00    +0.227 C 
ATOM     20  O   ALA A   3      -3.749  -8.577  23.698  0.00  0.00    -0.286 OA
ENDBRANCH  17  19
ENDBRANCH  15  17
ENDBRANCH   1  13
BRANCH   1  21
ATOM     21  CB  ILE A   2      -5.183 -13.644  24.189  0.00  0.00    +0.027 C 
ATOM     22  CG2 ILE A   2      -5.948 -12.332  24.111  0.00  0.00    +0.002 C 
BRANCH  21  23
ATOM     23  CG1 ILE A   2      -6.028 -14.795  23.639  0.00  0.00    +0.002 C 
ATOM     24  CD1 ILE A   2      -7.275 -15.086  24.455  0.00  0.00    +0.000 C 
ENDBRANCH  21  23
ENDBRANCH   1  21
TORSDOF 10
REMARK  Name = ../refined-set-2016/3rux/3rux_pocket.pdb
REMARK  239 active torsions:
REMARK  status: ('A' for Active; 'I' for Inactive)
REMARK    1  A    between atoms: _1  and  _3
REMARK    2  A    between atoms: _3  and  _4
REMARK    3  A    between atoms: _3  and  _6
REMARK    4  A    between atoms: _6  and  _7
REMARK    5  A    between atoms: _10  and  _12
REMARK    6  A    between atoms: _12  and  _13
REMARK    7  A    between atoms: _15  and  _17
REMARK    8  A    between atoms: _17  and  _18
REMARK    9  A    between atoms: _17  and  _20
REMARK   10  A    between atoms: _20  and  _21
REMARK   11  A    between atoms: _23  and  _25
REMARK   12  A    between atoms: _25  and  _26
REMARK   13  A    between atoms: _25  and  _28
REMARK   14  A    between atoms: _28  and  _29
REMARK   15  A    between atoms: _32  and  _34
REMARK   16  A    between atoms: _34  and  _35
REMARK   17  A    between atoms: _34  and  _37
REMARK   18  A    between atoms: _37  and  _38
REMARK   19  A    between atoms: _43  and  _45
REMARK   20  A    between atoms: _45  and  _46
REMARK   21  A    between atoms: _49  and  _51
REMARK   22  A    between atoms: _51  and  _52
REMARK   23  A    between atoms: _51  and  _54
REMARK   24  A    between atoms: _54  and  _55
REMARK   25  A    between atoms: _58  and  _60
REMARK   26  A    between atoms: _60  and  _61
REMARK   27  A    between atoms: _60  and  _63
REMARK   28  A    between atoms: _63  and  _64
REMARK   29  A    between atoms: _67  and  _69
REMARK   30  A    between atoms: _69  and  _70
REMARK   31  A    between atoms: _69  and  _72
REMARK   32  A    between atoms: _72  and  _73
REMARK   33  A    between atoms: _76  and  _78
REMARK   34  A    between atoms: _78  and  _79
REMARK   35  A    between atoms: _78  and  _81
REMARK   36  A    between atoms: _81  and  _82
REMARK   37  A    between atoms: _85  and  _87
REMARK   38  A    between atoms: _87  and  _88
REMARK   39  A    between atoms: _91  and  _93
REMARK   40  A    between atoms: _93  and  _94
REMARK   41  A    between atoms: _93  and  _96
REMARK   42  A    between atoms: _96  and  _97
REMARK   43  A    between atoms: _97  and  _98
REMARK   44  A    between atoms: _103  and  _105
REMARK   45  A    between atoms: _105  and  _106
REMARK   46  A    between atoms: _105  and  _108
REMARK   47  A    between atoms: _108  and  _109
REMARK   48  A    between atoms: _112  and  _114
REMARK   49  A    between atoms: _114  and  _115
REMARK   50  A    between atoms: _118  and  _120
REMARK   51  A    between atoms: _120  and  _121
REMARK   52  A    between atoms: _123  and  _125
REMARK   53  A    between atoms: _125  and  _126
REMARK   54  A    between atoms: _125  and  _128
REMARK   55  A    between atoms: _128  and  _129
REMARK   56  A    between atoms: _129  and  _130
REMARK   57  A    between atoms: _130  and  _131
REMARK   58  A    between atoms: _140  and  _142
REMARK   59  A    between atoms: _142  and  _143
REMARK   60  A    between atoms: _145  and  _147
REMARK   61  A    between atoms: _147  and  _148
REMARK   62  A    between atoms: _147  and  _150
REMARK   63  A    between atoms: _150  and  _151
REMARK   64  A    between atoms: _151  and  _152
REMARK   65  A    between atoms: _152  and  _153
REMARK   66  A    between atoms: _162  and  _164
REMARK   67  A    between atoms: _164  and  _165
REMARK   68  A    between atoms: _164  and  _167
REMARK   69  A    between atoms: _167  and  _168
REMARK   70  A    between atoms: _173  and  _175
REMARK   71  A    between atoms: _175  and  _176
REMARK   72  A    between atoms: _178  and  _180
REMARK   73  A    between atoms: _180  and  _181
REMARK   74  A    between atoms: _180  and  _183
REMARK   75  A    between atoms: _183  and  _184
REMARK   76  A    between atoms: _184  and  _185
REMARK   77  A    between atoms: _185  and  _186
REMARK   78  A    between atoms: _195  and  _197
REMARK   79  A    between atoms: _197  and  _198
REMARK   80  A    between atoms: _200  and  _202
REMARK   81  A    between atoms: _202  and  _203
REMARK   82  A    between atoms: _202  and  _205
REMARK   83  A    between atoms: _205  and  _206
REMARK   84  A    between atoms: _216  and  _218
REMARK   85  A    between atoms: _218  and  _219
REMARK   86  A    between atoms: _222  and  _224
REMARK   87  A    between atoms: _224  and  _225
REMARK   88  A    between atoms: _228  and  _230
REMARK   89  A    between atoms: _230  and  _231
REMARK   90  A    between atoms: _230  and  _233
REMARK   91  A    between atoms: _233  and  _234
REMARK   92  A    between atoms: _237  and  _239
REMARK   93  A    between atoms: _239  and  _240
REMARK   94  A    between atoms: _239  and  _242
REMARK   95  A    between atoms: _242  and  _243
REMARK   96  A    between atoms: _243  and  _244
REMARK   97  A    between atoms: _249  and  _251
REMARK   98  A    between atoms: _251  and  _252
REMARK   99  A    between atoms: _251  and  _254
REMARK  100  A    between atoms: _254  and  _255
REMARK  101  A    between atoms: _258  and  _260
REMARK  102  A    between atoms: _260  and  _261
REMARK  103  A    between atoms: _260  and  _263
REMARK  104  A    between atoms: _263  and  _264
REMARK  105  A    between atoms: _267  and  _269
REMARK  106  A    between atoms: _269  and  _270
REMARK  107  A    between atoms: _269  and  _272
REMARK  108  A    between atoms: _272  and  _273
REMARK  109  A    between atoms: _276  and  _278
REMARK  110  A    between atoms: _278  and  _279
REMARK  111  A    between atoms: _278  and  _281
REMARK  112  A    between atoms: _281  and  _282
REMARK  113  A    between atoms: _284  and  _286
REMARK  114  A    between atoms: _286  and  _287
REMARK  115  A    between atoms: _286  and  _289
REMARK  116  A    between atoms: _292  and  _294
REMARK  117  A    between atoms: _294  and  _295
REMARK  118  A    between atoms: _294  and  _297
REMARK  119  A    between atoms: _297  and  _298
REMARK  120  A    between atoms: _298  and  _299
REMARK  121  A    between atoms: _299  and  _300
REMARK  122  A    between atoms: _300  and  _301
REMARK  123  A    between atoms: _305  and  _307
REMARK  124  A    between atoms: _307  and  _308
REMARK  125  A    between atoms: _307  and  _310
REMARK  126  A    between atoms: _310  and  _311
REMARK  127  A    between atoms: _322  and  _323
REMARK  128  A    between atoms: _328  and  _330
REMARK  129  A    between atoms: _330  and  _331
REMARK  130  A    between atoms: _330  and  _333
REMARK  131  A    between atoms: _333  and  _334
REMARK  132  A    between atoms: _339  and  _341
REMARK  133  A    between atoms: _341  and  _342
REMARK  134  A    between atoms: _341  and  _344
REMARK  135  A    between atoms: _344  and  _345
REMARK  136  A    between atoms: _348  and  _350
REMARK  137  A    between atoms: _350  and  _351
REMARK  138  A    between atoms: _350  and  _353
REMARK  139  A    between atoms: _356  and  _358
REMARK  140  A    between atoms: _358  and  _359
REMARK  141  A    between atoms: _361  and  _363
REMARK  142  A    between atoms: _363  and  _364
REMARK  143  A    between atoms: _363  and  _366
REMARK  144  A    between atoms: _366  and  _367
REMARK  145  A    between atoms: _367  and  _368
REMARK  146  A    between atoms: _368  and  _369
REMARK  147  A    between atoms: _369  and  _370
REMARK  148  A    between atoms: _374  and  _376
REMARK  149  A    between atoms: _376  and  _377
REMARK  150  A    between atoms: _376  and  _379
REMARK  151  A    between atoms: _379  and  _380
REMARK  152  A    between atoms: _383  and  _385
REMARK  153  A    between atoms: _385  and  _386
REMARK  154  A    between atoms: _389  and  _391
REMARK  155  A    between atoms: _391  and  _392
REMARK  156  A    between atoms: _394  and  _396
REMARK  157  A    between atoms: _396  and  _397
REMARK  158  A    between atoms: _396  and  _399
REMARK  159  A    between atoms: _399  and  _400
REMARK  160  A    between atoms: _403  and  _405
REMARK  161  A    between atoms: _405  and  _406
REMARK  162  A    between atoms: _405  and  _408
REMARK  163  A    between atoms: _408  and  _409
REMARK  164  A    between atoms: _412  and  _414
REMARK  165  A    between atoms: _414  and  _415
REMARK  166  A    between atoms: _418  and  _420
REMARK  167  A    between atoms: _420  and  _421
REMARK  168  A    between atoms: _420  and  _423
REMARK  169  A    between atoms: _423  and  _424
REMARK  170  A    between atoms: _424  and  _425
REMARK  171  A    between atoms: _428  and  _430
REMARK  172  A    between atoms: _430  and  _431
REMARK  173  A    between atoms: _430  and  _433
REMARK  174  A    between atoms: _436  and  _438
REMARK  175  A    between atoms: _438  and  _439
REMARK  176  A    between atoms: _438  and  _441
REMARK  177  A    between atoms: _441  and  _442
REMARK  178  A    between atoms: _445  and  _447
REMARK  179  A    between atoms: _447  and  _448
REMARK  180  A    between atoms: _450  and  _452
REMARK  181  A    between atoms: _452  and  _453
REMARK  182  A    between atoms: _452  and  _455
REMARK  183  A    between atoms: _458  and  _460
REMARK  184  A    between atoms: _460  and  _461
REMARK  185  A    between atoms: _463  and  _465
REMARK  186  A    between atoms: _465  and  _466
REMARK  187  A    between atoms: _465  and  _468
REMARK  188  A    between atoms: _468  and  _469
REMARK  189  A    between atoms: _472  and  _474
REMARK  190  A    between atoms: _474  and  _475
REMARK  191  A    between atoms: _474  and  _477
REMARK  192  A    between atoms: _477  and  _478
REMARK  193  A    between atoms: _483  and  _485
REMARK  194  A    between atoms: _485  and  _486
REMARK  195  A    between atoms: _485  and  _488
REMARK  196  A    between atoms: _491  and  _493
REMARK  197  A    between atoms: _493  and  _494
REMARK  198  A    between atoms: _493  and  _496
REMARK  199  A    between atoms: _496  and  _497
REMARK  200  A    between atoms: _497  and  _498
REMARK  201  A    between atoms: _503  and  _505
REMARK  202  A    between atoms: _505  and  _506
REMARK  203  A    between atoms: _510  and  _511
REMARK  204  A    between atoms: _516  and  _518
REMARK  205  A    between atoms: _518  and  _519
REMARK  206  A    between atoms: _518  and  _521
REMARK  207  A    between atoms: _521  and  _522
REMARK  208  A    between atoms: _522  and  _523
REMARK  209  A    between atoms: _526  and  _528
REMARK  210  A    between atoms: _528  and  _529
REMARK  211  A    between atoms: _528  and  _531
REMARK  212  A    between atoms: _534  and  _536
REMARK  213  A    between atoms: _536  and  _537
REMARK  214  A    between atoms: _536  and  _539
REMARK  215  A    between atoms: _539  and  _540
REMARK  216  A    between atoms: _544  and  _545
REMARK  217  A    between atoms: _550  and  _552
REMARK  218  A    between atoms: _552  and  _553
REMARK  219  A    between atoms: _552  and  _555
REMARK  220  A    between atoms: _555  and  _556
REMARK  221  A    between atoms: _559  and  _561
REMARK  222  A    between atoms: _561  and  _562
REMARK  223  A    between atoms: _565  and  _567
REMARK  224  A    between atoms: _567  and  _568
REMARK  225  A    between atoms: _567  and  _570
REMARK  226  A    between atoms: _570  and  _571
REMARK  227  A    between atoms: _574  and  _576
REMARK  228  A    between atoms: _576  and  _577
REMARK  229  A    between atoms: _576  and  _579
REMARK  230  A    between atoms: _579  and  _580
REMARK  231  A    between atoms: _582  and  _584
REMARK  232  A    between atoms: _584  and  _585
REMARK  233  A    between atoms: _587  and  _589
REMARK  234  A    between atoms: _589  and  _590
REMARK  235  A    between atoms: _589  and  _592
REMARK  236  A    between atoms: _592  and  _593
REMARK  237  A    between atoms: _596  and  _598
REMARK  238  A    between atoms: _598  and  _599
REMARK  239  A    between atoms: _598  and  _601
REMARK                            x       y       z     vdW  Elec       q    Type
REMARK                         _______ _______ _______ _____ _____    ______ ____
ROOT
ATOM      1  C   ARG A   7       0.344  -6.987   4.681  0.00  0.00    +0.241 C 
ATOM      2  O   ARG A   7       0.463  -5.778   4.876  0.00  0.00    -0.273 OA
ATOM      3  N   HIS A   8       1.091  -7.668   3.819  0.00  0.00    -0.297 N 
ATOM      4  H   HIS A   8       1.033  -8.706   3.817  0.00  0.00    +0.150 HD
ENDROOT
BRANCH   3   5
ATOM      5  CA  HIS A   8       1.990  -7.013   2.874  0.00  0.00    +0.155 C 
BRANCH   5   6
ATOM      6  C   HIS A   8       2.947  -6.028   3.538  0.00  0.00    +0.241 C 
ATOM      7  N   GLY A   9       3.496  -6.426   4.681  0.00  0.00    -0.295 N 
ATOM      8  H   GLY A   9       3.183  -7.322   5.107  0.00  0.00    +0.150 HD
ATOM      9  O   HIS A   8       3.180  -4.932   3.027  0.00  0.00    -0.273 OA
BRANCH   7  10
ATOM     10  CA  GLY A   9       4.520  -5.645   5.352  0.00  0.00    +0.176 C 
BRANCH  10  11
ATOM     11  C   GLY A   9       4.024  -4.389   6.044  0.00  0.00    +0.243 C 
ATOM     12  O   GLY A   9       4.821  -3.558   6.477  0.00  0.00    -0.273 OA
ATOM     13  N   ARG A  10       2.708  -4.246   6.152  0.00  0.00    -0.297 N 
ATOM     14  H   ARG A  10       2.080  -4.967   5.743  0.00  0.00    +0.150 HD
BRANCH  13  15
ATOM     15  CA  ARG A  10       2.129  -3.098   6.833  0.00  0.00    +0.149 C 
BRANCH  15  16
ATOM     16  C   ARG A  10       2.069  -3.357   8.334  0.00  0.00    +0.241 C 
ATOM     17  N   GLY A  11       1.628  -2.358   9.091  0.00  0.00    -0.295 N 
ATOM     18  H   GLY A  11       1.309  -1.478   8.638  0.00  0.00    +0.150 HD
ATOM     19  O   ARG A  10       2.425  -4.441   8.795  0.00  0.00    -0.273 OA
BRANCH  17  20
ATOM     20  CA  GLY A  11       1.582  -2.470  10.537  0.00  0.00    +0.176 C 
BRANCH  20  21
ATOM     21  C   GLY A  11       0.182  -2.668  11.084  0.00  0.00    +0.243 C 
ATOM     22  N   TRP A  12       0.103  -2.949  12.381  0.00  0.00    -0.297 N 
ATOM     23  H   TRP A  12       0.978  -3.158  12.903  0.00  0.00    +0.150 HD
ATOM     24  O   GLY A  11      -0.804  -2.585  10.350  0.00  0.00    -0.273 OA
BRANCH  22  25
ATOM     25  CA  TRP A  12      -1.166  -2.975  13.097  0.00  0.00    +0.153 C 
BRANCH  25  26
ATOM     26  C   TRP A  12      -0.986  -2.269  14.431  0.00  0.00    +0.241 C 
ATOM     27  O   TRP A  12      -0.126  -2.645  15.226  0.00  0.00    -0.273 OA
ATOM     28  N   ALA A  13      -1.792  -1.240  14.669  0.00  0.00    -0.297 N 
ATOM     29  H   ALA A  13      -2.540  -1.014  13.982  0.00  0.00    +0.150 HD
BRANCH  28  30
ATOM     30  CA  ALA A  13      -1.657  -0.419  15.866  0.00  0.00    +0.149 C 
ATOM     31  CB  ALA A  13      -1.868   1.044  15.523  0.00  0.00    +0.031 C 
BRANCH  30  32
ATOM     32  C   ALA A  13      -2.628  -0.845  16.959  0.00  0.00    +0.241 C 
ATOM     33  N   ALA A  14      -2.208  -0.679  18.209  0.00  0.00    -0.297 N 
ATOM     34  H   ALA A  14      -1.252  -0.305  18.378  0.00  0.00    +0.150 HD
ATOM     35  O   ALA A  13      -3.732  -1.309  16.678  0.00  0.00    -0.273 OA
BRANCH  33  36
ATOM     36  CA  ALA A  14      -3.054  -1.008  19.346  0.00  0.00    +0.149 C 
ATOM     37  CB  ALA A  14      -3.004  -2.513  19.623  0.00  0.00    +0.031 C 
BRANCH  36  38
ATOM     38  C   ALA A  14      -2.654  -0.233  20.596  0.00  0.00    +0.241 C 
ATOM     39  N   THR A  15      -3.606  -0.072  21.508  0.00  0.00    -0.296 N 
ATOM     40  H   THR A  15      -4.597  -0.245  21.244  0.00  0.00    +0.150 HD
ATOM     41  O   ALA A  14      -1.519   0.229  20.720  0.00  0.00    -0.273 OA
BRANCH  39  42
ATOM     42  CA  THR A  15      -3.294   0.341  22.870  0.00  0.00    +0.164 C 
BRANCH  42  43
ATOM     43  C   THR A  15      -3.809  -0.744  23.808  0.00  0.00    +0.229 C 
ATOM     44  O   THR A  15      -4.670  -1.543  23.426  0.00  0.00    -0.286 OA
ENDBRANCH  42  43
BRANCH  42  45
ATOM     45  CB  THR A  15      -3.916   1.702  23.243  0.00  0.00    +0.136 C 
ATOM     46  CG2 THR A  15      -3.536   2.773  22.224  0.00  0.00    +0.034 C 
BRANCH  45  47
ATOM     47  OG1 THR A  15      -5.341   1.581  23.318  0.00  0.00    -0.382 OA
ATOM     48  HG1 THR A  15      -5.733   2.458  23.558  0.00  0.00    +0.210 HD
ENDBRANCH  45  47
ENDBRANCH  42  45
ENDBRANCH  39  42
ENDBRANCH  36  38
ENDBRANCH  33  36
ENDBRANCH  30  32
ENDBRANCH  28  30
ENDBRANCH  25  26
BRANCH  25  49
ATOM     49  CB  TRP A  12      -1.648  -4.409  13.320  0.00  0.00    +0.057 C 
BRANCH  49  50
ATOM     50  CG  TRP A  12      -3.038  -4.479  13.873  0.00  0.00    -0.002 A 
ATOM     51  CD1 TRP A  12      -3.395  -4.720  15.169  0.00  0.00    +0.068 A 
ATOM     52  NE1 TRP A  12      -4.762  -4.702  15.292  0.00  0.00    -0.352 N 
ATOM     53  HE1 TRP A  12      -5.292  -4.860  16.173  0.00  0.00    +0.166 HD
ATOM     54  CE2 TRP A  12      -5.315  -4.442  14.068  0.00  0.00    +0.056 A 
ATOM     55  CZ2 TRP A  12      -6.653  -4.326  13.690  0.00  0.00    +0.017 A 
ATOM     56  CH2 TRP A  12      -6.917  -4.060  12.373  0.00  0.00    +0.001 A 
ATOM     57  CZ3 TRP A  12      -5.889  -3.908  11.439  0.00  0.00    +0.000 A 
ATOM     58  CE3 TRP A  12      -4.560  -4.016  11.812  0.00  0.00    +0.001 A 
ATOM     59  CD2 TRP A  12      -4.258  -4.291  13.148  0.00  0.00    +0.013 A 
ENDBRANCH  49  50
ENDBRANCH  25  49
ENDBRANCH  22  25
ENDBRANCH  20  21
ENDBRANCH  17  20
ENDBRANCH  15  16
BRANCH  15  60
ATOM     60  CB  ARG A  10       0.740  -2.780   6.271  0.00  0.00    +0.033 C 
BRANCH  60  61
ATOM     61  CG  ARG A  10       0.771  -2.298   4.825  0.00  0.00    +0.045 C 
BRANCH  61  62
ATOM     62  CD  ARG A  10      -0.606  -1.870   4.340  0.00  0.00    +0.174 C 
BRANCH  62  63
ATOM     63  NE  ARG A  10      -1.461  -3.006   4.009  0.00  0.00    -0.265 N 
ATOM     64  HE  ARG A  10      -1.791  -3.610   4.789  0.00  0.00    +0.259 HD
ATOM     65  CZ  ARG A  10      -1.845  -3.319   2.775  0.00  0.00    +0.342 C 
ATOM     66  NH2 ARG A  10      -2.626  -4.370   2.567  0.00  0.00    -0.292 N 
ATOM     67 HH21 ARG A  10      -2.940  -4.952   3.370  0.00  0.00    +0.255 HD
ATOM     68 HH22 ARG A  10      -2.925  -4.613   1.601  0.00  0.00    +0.255 HD
ATOM     69  NH1 ARG A  10      -1.452  -2.578   1.746  0.00  0.00    -0.292 N 
ATOM     70 HH11 ARG A  10      -0.842  -1.750   1.904  0.00  0.00    +0.255 HD
ATOM     71 HH12 ARG A  10      -1.754  -2.825   0.782  0.00  0.00    +0.255 HD
ENDBRANCH  62  63
ENDBRANCH  61  62
ENDBRANCH  60  61
ENDBRANCH  15  60
ENDBRANCH  13  15
ENDBRANCH  10  11
ENDBRANCH   7  10
ENDBRANCH   5   6
BRANCH   5  72
ATOM     72  CB  HIS A   8       1.180  -6.326   1.771  0.00  0.00    +0.076 C 
BRANCH  72  73
ATOM     73  CG  HIS A   8       0.229  -7.244   1.067  0.00  0.00    +0.082 A 
ATOM     74  CD2 HIS A   8      -1.124  -7.266   1.023  0.00  0.00    +0.115 A 
ATOM     75  NE2 HIS A   8      -1.488  -8.331   0.235  0.00  0.00    -0.221 NA
ATOM     76  CE1 HIS A   8      -0.396  -8.943  -0.189  0.00  0.00    +0.199 A 
ATOM     77  ND1 HIS A   8       0.654  -8.308   0.300  0.00  0.00    -0.227 NA
ENDBRANCH  72  73
ENDBRANCH   5  72
ENDBRANCH   3   5
BRANCH   1  78
ATOM     78  CA  ARG A   7      -0.699  -7.799   5.433  0.00  0.00    +0.149 C 
BRANCH  78  81
ATOM     79  C   GLY A   6      -0.178  -7.024   7.673  0.00  0.00    +0.243 C 
ATOM     80  O   GLY A   6       0.953  -7.513   7.634  0.00  0.00    -0.273 OA
ATOM     81  N   ARG A   7      -1.052  -7.141   6.681  0.00  0.00    -0.297 N 
ATOM     82  H   ARG A   7      -2.010  -6.754   6.799  0.00  0.00    +0.150 HD
BRANCH  79  83
ATOM     83  CA  GLY A   6      -0.632  -6.242   8.887  0.00  0.00    +0.176 C 
BRANCH  83  86
ATOM     84  C   ARG A   5       0.543  -6.828  10.924  0.00  0.00    +0.241 C 
ATOM     85  O   ARG A   5      -0.406  -7.486  11.353  0.00  0.00    -0.273 OA
ATOM     86  N   GLY A   6       0.487  -6.124   9.799  0.00  0.00    -0.295 N 
ATOM     87  H   GLY A   6       1.264  -5.473   9.568  0.00  0.00    +0.150 HD
BRANCH  84  88
ATOM     88  CA  ARG A   5       1.862  -6.767  11.681  0.00  0.00    +0.149 C 
BRANCH  88  91
ATOM     89  C   GLY A   4       2.049  -5.544  13.769  0.00  0.00    +0.243 C 
ATOM     90  O   GLY A   4       2.617  -4.597  13.222  0.00  0.00    -0.273 OA
ATOM     91  N   ARG A   5       1.643  -6.622  13.111  0.00  0.00    -0.297 N 
ATOM     92  H   ARG A   5       1.157  -7.381  13.630  0.00  0.00    +0.150 HD
BRANCH  89  93
ATOM     93  CA  GLY A   4       1.775  -5.532  15.259  0.00  0.00    +0.176 C 
BRANCH  93  95
ATOM     94  C   ALA A   3       4.038  -5.009  15.980  0.00  0.00    +0.241 C 
ATOM     95  N   GLY A   4       2.736  -4.741  16.005  0.00  0.00    -0.295 N 
ATOM     96  H   GLY A   4       2.396  -3.941  16.576  0.00  0.00    +0.150 HD
ATOM     97  O   ALA A   3       4.531  -5.913  15.301  0.00  0.00    -0.273 OA
BRANCH  94  98
ATOM     98  CA  ALA A   3       4.909  -4.133  16.869  0.00  0.00    +0.149 C 
ATOM     99  CB  ALA A   3       6.350  -4.628  16.873  0.00  0.00    +0.031 C 
BRANCH  98 102
ATOM    100  C   THR A   2       4.315  -2.983  18.931  0.00  0.00    +0.243 C 
ATOM    101  O   THR A   2       4.752  -1.910  18.508  0.00  0.00    -0.273 OA
ATOM    102  N   ALA A   3       4.368  -4.107  18.226  0.00  0.00    -0.297 N 
ATOM    103  H   ALA A   3       4.016  -4.989  18.650  0.00  0.00    +0.150 HD
BRANCH 100 104
ATOM    104  CA  THR A   2       3.698  -3.067  20.326  0.00  0.00    +0.176 C 
BRANCH 104 106
ATOM    105  C   GLN A   1       1.560  -4.226  20.505  0.00  0.00    +0.238 C 
ATOM    106  N   THR A   2       2.887  -4.260  20.578  0.00  0.00    -0.295 N 
ATOM    107  H   THR A   2       3.360  -5.154  20.820  0.00  0.00    +0.150 HD
ATOM    108  O   GLN A   1       0.937  -3.297  19.987  0.00  0.00    -0.274 OA
BRANCH 105 109
ATOM    109  CA  GLN A   1       0.824  -5.416  21.104  0.00  0.00    +0.145 C 
BRANCH 109 110
ATOM    110  N   GLN A   1      -0.080  -4.949  22.149  0.00  0.00    -0.238 NA
ATOM    111  H   GLN A   1      -0.637  -4.085  21.994  0.00  0.00    +0.142 HD
ENDBRANCH 109 110
BRANCH 109 112
ATOM    112  CB  GLN A   1       0.042  -6.171  20.029  0.00  0.00    +0.036 C 
BRANCH 112 113
ATOM    113  CG  GLN A   1       0.901  -6.867  18.991  0.00  0.00    +0.087 C 
BRANCH 113 114
ATOM    114  CD  GLN A   1       0.067  -7.661  18.003  0.00  0.00    +0.219 C 
ATOM    115  OE1 GLN A   1       0.076  -8.893  18.015  0.00  0.00    -0.275 OA
ATOM    116  NE2 GLN A   1      -0.668  -6.957  17.146  0.00  0.00    -0.329 N 
ATOM    117 HE21 GLN A   1      -0.644  -5.918  17.172  0.00  0.00    +0.145 HD
ATOM    118 HE22 GLN A   1      -1.266  -7.446  16.450  0.00  0.00    +0.145 HD
ENDBRANCH 113 114
ENDBRANCH 112 113
ENDBRANCH 109 112
ENDBRANCH 105 109
ENDBRANCH 104 106
BRANCH 104 119
ATOM    119  CB  THR A   2       4.834  -2.945  21.357  0.00  0.00    +0.137 C 
ATOM    120  CG2 THR A   2       4.272  -2.872  22.769  0.00  0.00    +0.034 C 
BRANCH 119 121
ATOM    121  OG1 THR A   2       5.694  -4.085  21.249  0.00  0.00    -0.382 OA
ATOM    122  HG1 THR A   2       6.426  -4.009  21.911  0.00  0.00    +0.210 HD
ENDBRANCH 119 121
ENDBRANCH 104 119
ENDBRANCH 100 104
ENDBRANCH  98 102
ENDBRANCH  94  98
ENDBRANCH  93  95
ENDBRANCH  89  93
ENDBRANCH  88  91
BRANCH  88 123
ATOM    123  CB  ARG A   5       2.692  -8.023  11.395  0.00  0.00    +0.033 C 
BRANCH 123 124
ATOM    124  CG  ARG A   5       3.793  -8.260  12.418  0.00  0.00    +0.045 C 
BRANCH 124 125
ATOM    125  CD  ARG A   5       4.938  -9.090  11.860  0.00  0.00    +0.174 C 
BRANCH 125 126
ATOM    126  NE  ARG A   5       4.577 -10.486  11.641  0.00  0.00    -0.265 N 
ATOM    127  CZ  ARG A   5       5.447 -11.491  11.691  0.00  0.00    +0.342 C 
ATOM    128  NH2 ARG A   5       6.724 -11.250  11.961  0.00  0.00    -0.292 N 
ATOM    129 HH21 ARG A   5       7.044 -10.276  12.133  0.00  0.00    +0.255 HD
ATOM    130 HH22 ARG A   5       7.404 -12.036  12.000  0.00  0.00    +0.255 HD
ATOM    131  NH1 ARG A   5       5.046 -12.736  11.478  0.00  0.00    -0.292 N 
ATOM    132 HH11 ARG A   5       5.731 -13.517  11.519  0.00  0.00    +0.255 HD
ATOM    133 HH12 ARG A   5       4.046 -12.932  11.270  0.00  0.00    +0.255 HD
ATOM    134  HE  ARG A   5       3.582 -10.708  11.434  0.00  0.00    +0.259 HD
ENDBRANCH 125 126
ENDBRANCH 124 125
ENDBRANCH 123 124
ENDBRANCH  88 123
ENDBRANCH  84  88
ENDBRANCH  83  86
ENDBRANCH  79  83
ENDBRANCH  78  81
BRANCH  78 135
ATOM    135  CB  ARG A   7      -1.929  -7.959   4.538  0.00  0.00    +0.033 C 
BRANCH 135 136
ATOM    136  CG  ARG A   7      -2.953  -8.964   5.027  0.00  0.00    +0.045 C 
BRANCH 136 137
ATOM    137  CD  ARG A   7      -4.148  -9.030   4.075  0.00  0.00    +0.174 C 
BRANCH 137 138
ATOM    138  NE  ARG A   7      -4.765  -7.719   3.894  0.00  0.00    -0.265 N 
ATOM    139  HE  ARG A   7      -5.107  -7.226   4.744  0.00  0.00    +0.259 HD
ATOM    140  CZ  ARG A   7      -4.922  -7.108   2.722  0.00  0.00    +0.342 C 
ATOM    141  NH2 ARG A   7      -5.493  -5.912   2.676  0.00  0.00    -0.292 N 
ATOM    142 HH21 ARG A   7      -5.816  -5.456   3.553  0.00  0.00    +0.255 HD
ATOM    143 HH22 ARG A   7      -5.618  -5.430   1.763  0.00  0.00    +0.255 HD
ATOM    144  NH1 ARG A   7      -4.523  -7.689   1.596  0.00  0.00    -0.292 N 
ATOM    145 HH11 ARG A   7      -4.083  -8.631   1.624  0.00  0.00    +0.255 HD
ATOM    146 HH12 ARG A   7      -4.651  -7.202   0.686  0.00  0.00    +0.255 HD
ENDBRANCH 137 138
ENDBRANCH 136 137
ENDBRANCH 135 136
ENDBRANCH  78 135
ENDBRANCH   1  78
TORSDOF 53
REMARK  Name = ../refined-set-2016/3rux/3rux_pocket.pdb
REMARK  239 active torsions:
REMARK  status: ('A' for Active; 'I' for Inactive)
REMARK    1  A    between atoms: _1  and  _3
REMARK    2  A    between atoms: _3  and  _4
REMARK    3  A    between atoms: _3  and  _6
REMARK    4  A    between atoms: _6  and  _7
REMARK    5  A    between atoms: _10  and  _12
REMARK    6  A    between atoms: _12  and  _13
REMARK    7  A    between atoms: _15  and  _17
REMARK    8  A    between atoms: _17  and  _18
REMARK    9  A    between atoms: _17  and  _20
REMARK   10  A    between atoms: _20  and  _21
REMARK   11  A    between atoms: _23  and  _25
REMARK   12  A    between atoms: _25  and  _26
REMARK   13  A    between atoms: _25  and  _28
REMARK   14  A    between atoms: _28  and  _29
REMARK   15  A    between atoms: _32  and  _34
REMARK   16  A    between atoms: _34  and  _35
REMARK   17  A    between atoms: _34  and  _37
REMARK   18  A    between atoms: _37  and  _38
REMARK   19  A    between atoms: _43  and  _45
REMARK   20  A    between atoms: _45  and  _46
REMARK   21  A    between atoms: _49  and  _51
REMARK   22  A    between atoms: _51  and  _52
REMARK   23  A    between atoms: _51  and  _54
REMARK   24  A    between atoms: _54  and  _55
REMARK   25  A    between atoms: _58  and  _60
REMARK   26  A    between atoms: _60  and  _61
REMARK   27  A    between atoms: _60  and  _63
REMARK   28  A    between atoms: _63  and  _64
REMARK   29  A    between atoms: _67  and  _69
REMARK   30  A    between atoms: _69  and  _70
REMARK   31  A    between atoms: _69  and  _72
REMARK   32  A    between atoms: _72  and  _73
REMARK   33  A    between atoms: _76  and  _78
REMARK   34  A    between atoms: _78  and  _79
REMARK   35  A    between atoms: _78  and  _81
REMARK   36  A    between atoms: _81  and  _82
REMARK   37  A    between atoms: _85  and  _87
REMARK   38  A    between atoms: _87  and  _88
REMARK   39  A    between atoms: _91  and  _93
REMARK   40  A    between atoms: _93  and  _94
REMARK   41  A    between atoms: _93  and  _96
REMARK   42  A    between atoms: _96  and  _97
REMARK   43  A    between atoms: _97  and  _98
REMARK   44  A    between atoms: _103  and  _105
REMARK   45  A    between atoms: _105  and  _106
REMARK   46  A    between atoms: _105  and  _108
REMARK   47  A    between atoms: _108  and  _109
REMARK   48  A    between atoms: _112  and  _114
REMARK   49  A    between atoms: _114  and  _115
REMARK   50  A    between atoms: _118  and  _120
REMARK   51  A    between atoms: _120  and  _121
REMARK   52  A    between atoms: _123  and  _125
REMARK   53  A    between atoms: _125  and  _126
REMARK   54  A    between atoms: _125  and  _128
REMARK   55  A    between atoms: _128  and  _129
REMARK   56  A    between atoms: _129  and  _130
REMARK   57  A    between atoms: _130  and  _131
REMARK   58  A    between atoms: _140  and  _142
REMARK   59  A    between atoms: _142  and  _143
REMARK   60  A    between atoms: _145  and  _147
REMARK   61  A    between atoms: _147  and  _148
REMARK   62  A    between atoms: _147  and  _150
REMARK   63  A    between atoms: _150  and  _151
REMARK   64  A    between atoms: _151  and  _152
REMARK   65  A    between atoms: _152  and  _153
REMARK   66  A    between atoms: _162  and  _164
REMARK   67  A    between atoms: _164  and  _165
REMARK   68  A    between atoms: _164  and  _167
REMARK   69  A    between atoms: _167  and  _168
REMARK   70  A    between atoms: _173  and  _175
REMARK   71  A    between atoms: _175  and  _176
REMARK   72  A    between atoms: _178  and  _180
REMARK   73  A    between atoms: _180  and  _181
REMARK   74  A    between atoms: _180  and  _183
REMARK   75  A    between atoms: _183  and  _184
REMARK   76  A    between atoms: _184  and  _185
REMARK   77  A    between atoms: _185  and  _186
REMARK   78  A    between atoms: _195  and  _197
REMARK   79  A    between atoms: _197  and  _198
REMARK   80  A    between atoms: _200  and  _202
REMARK   81  A    between atoms: _202  and  _203
REMARK   82  A    between atoms: _202  and  _205
REMARK   83  A    between atoms: _205  and  _206
REMARK   84  A    between atoms: _216  and  _218
REMARK   85  A    between atoms: _218  and  _219
REMARK   86  A    between atoms: _222  and  _224
REMARK   87  A    between atoms: _224  and  _225
REMARK   88  A    between atoms: _228  and  _230
REMARK   89  A    between atoms: _230  and  _231
REMARK   90  A    between atoms: _230  and  _233
REMARK   91  A    between atoms: _233  and  _234
REMARK   92  A    between atoms: _237  and  _239
REMARK   93  A    between atoms: _239  and  _240
REMARK   94  A    between atoms: _239  and  _242
REMARK   95  A    between atoms: _242  and  _243
REMARK   96  A    between atoms: _243  and  _244
REMARK   97  A    between atoms: _249  and  _251
REMARK   98  A    between atoms: _251  and  _252
REMARK   99  A    between atoms: _251  and  _254
REMARK  100  A    between atoms: _254  and  _255
REMARK  101  A    between atoms: _258  and  _260
REMARK  102  A    between atoms: _260  and  _261
REMARK  103  A    between atoms: _260  and  _263
REMARK  104  A    between atoms: _263  and  _264
REMARK  105  A    between atoms: _267  and  _269
REMARK  106  A    between atoms: _269  and  _270
REMARK  107  A    between atoms: _269  and  _272
REMARK  108  A    between atoms: _272  and  _273
REMARK  109  A    between atoms: _276  and  _278
REMARK  110  A    between atoms: _278  and  _279
REMARK  111  A    between atoms: _278  and  _281
REMARK  112  A    between atoms: _281  and  _282
REMARK  113  A    between atoms: _284  and  _286
REMARK  114  A    between atoms: _286  and  _287
REMARK  115  A    between atoms: _286  and  _289
REMARK  116  A    between atoms: _292  and  _294
REMARK  117  A    between atoms: _294  and  _295
REMARK  118  A    between atoms: _294  and  _297
REMARK  119  A    between atoms: _297  and  _298
REMARK  120  A    between atoms: _298  and  _299
REMARK  121  A    between atoms: _299  and  _300
REMARK  122  A    between atoms: _300  and  _301
REMARK  123  A    between atoms: _305  and  _307
REMARK  124  A    between atoms: _307  and  _308
REMARK  125  A    between atoms: _307  and  _310
REMARK  126  A    between atoms: _310  and  _311
REMARK  127  A    between atoms: _322  and  _323
REMARK  128  A    between atoms: _328  and  _330
REMARK  129  A    between atoms: _330  and  _331
REMARK  130  A    between atoms: _330  and  _333
REMARK  131  A    between atoms: _333  and  _334
REMARK  132  A    between atoms: _339  and  _341
REMARK  133  A    between atoms: _341  and  _342
REMARK  134  A    between atoms: _341  and  _344
REMARK  135  A    between atoms: _344  and  _345
REMARK  136  A    between atoms: _348  and  _350
REMARK  137  A    between atoms: _350  and  _351
REMARK  138  A    between atoms: _350  and  _353
REMARK  139  A    between atoms: _356  and  _358
REMARK  140  A    between atoms: _358  and  _359
REMARK  141  A    between atoms: _361  and  _363
REMARK  142  A    between atoms: _363  and  _364
REMARK  143  A    between atoms: _363  and  _366
REMARK  144  A    between atoms: _366  and  _367
REMARK  145  A    between atoms: _367  and  _368
REMARK  146  A    between atoms: _368  and  _369
REMARK  147  A    between atoms: _369  and  _370
REMARK  148  A    between atoms: _374  and  _376
REMARK  149  A    between atoms: _376  and  _377
REMARK  150  A    between atoms: _376  and  _379
REMARK  151  A    between atoms: _379  and  _380
REMARK  152  A    between atoms: _383  and  _385
REMARK  153  A    between atoms: _385  and  _386
REMARK  154  A    between atoms: _389  and  _391
REMARK  155  A    between atoms: _391  and  _392
REMARK  156  A    between atoms: _394  and  _396
REMARK  157  A    between atoms: _396  and  _397
REMARK  158  A    between atoms: _396  and  _399
REMARK  159  A    between atoms: _399  and  _400
REMARK  160  A    between atoms: _403  and  _405
REMARK  161  A    between atoms: _405  and  _406
REMARK  162  A    between atoms: _405  and  _408
REMARK  163  A    between atoms: _408  and  _409
REMARK  164  A    between atoms: _412  and  _414
REMARK  165  A    between atoms: _414  and  _415
REMARK  166  A    between atoms: _418  and  _420
REMARK  167  A    between atoms: _420  and  _421
REMARK  168  A    between atoms: _420  and  _423
REMARK  169  A    between atoms: _423  and  _424
REMARK  170  A    between atoms: _424  and  _425
REMARK  171  A    between atoms: _428  and  _430
REMARK  172  A    between atoms: _430  and  _431
REMARK  173  A    between atoms: _430  and  _433
REMARK  174  A    between atoms: _436  and  _438
REMARK  175  A    between atoms: _438  and  _439
REMARK  176  A    between atoms: _438  and  _441
REMARK  177  A    between atoms: _441  and  _442
REMARK  178  A    between atoms: _445  and  _447
REMARK  179  A    between atoms: _447  and  _448
REMARK  180  A    between atoms: _450  and  _452
REMARK  181  A    between atoms: _452  and  _453
REMARK  182  A    between atoms: _452  and  _455
REMARK  183  A    between atoms: _458  and  _460
REMARK  184  A    between atoms: _460  and  _461
REMARK  185  A    between atoms: _463  and  _465
REMARK  186  A    between atoms: _465  and  _466
REMARK  187  A    between atoms: _465  and  _468
REMARK  188  A    between atoms: _468  and  _469
REMARK  189  A    between atoms: _472  and  _474
REMARK  190  A    between atoms: _474  and  _475
REMARK  191  A    between atoms: _474  and  _477
REMARK  192  A    between atoms: _477  and  _478
REMARK  193  A    between atoms: _483  and  _485
REMARK  194  A    between atoms: _485  and  _486
REMARK  195  A    between atoms: _485  and  _488
REMARK  196  A    between atoms: _491  and  _493
REMARK  197  A    between atoms: _493  and  _494
REMARK  198  A    between atoms: _493  and  _496
REMARK  199  A    between atoms: _496  and  _497
REMARK  200  A    between atoms: _497  and  _498
REMARK  201  A    between atoms: _503  and  _505
REMARK  202  A    between atoms: _505  and  _506
REMARK  203  A    between atoms: _510  and  _511
REMARK  204  A    between atoms: _516  and  _518
REMARK  205  A    between atoms: _518  and  _519
REMARK  206  A    between atoms: _518  and  _521
REMARK  207  A    between atoms: _521  and  _522
REMARK  208  A    between atoms: _522  and  _523
REMARK  209  A    between atoms: _526  and  _528
REMARK  210  A    between atoms: _528  and  _529
REMARK  211  A    between atoms: _528  and  _531
REMARK  212  A    between atoms: _534  and  _536
REMARK  213  A    between atoms: _536  and  _537
REMARK  214  A    between atoms: _536  and  _539
REMARK  215  A    between atoms: _539  and  _540
REMARK  216  A    between atoms: _544  and  _545
REMARK  217  A    between atoms: _550  and  _552
REMARK  218  A    between atoms: _552  and  _553
REMARK  219  A    between atoms: _552  and  _555
REMARK  220  A    between atoms: _555  and  _556
REMARK  221  A    between atoms: _559  and  _561
REMARK  222  A    between atoms: _561  and  _562
REMARK  223  A    between atoms: _565  and  _567
REMARK  224  A    between atoms: _567  and  _568
REMARK  225  A    between atoms: _567  and  _570
REMARK  226  A    between atoms: _570  and  _571
REMARK  227  A    between atoms: _574  and  _576
REMARK  228  A    between atoms: _576  and  _577
REMARK  229  A    between atoms: _576  and  _579
REMARK  230  A    between atoms: _579  and  _580
REMARK  231  A    between atoms: _582  and  _584
REMARK  232  A    between atoms: _584  and  _585
REMARK  233  A    between atoms: _587  and  _589
REMARK  234  A    between atoms: _589  and  _590
REMARK  235  A    between atoms: _589  and  _592
REMARK  236  A    between atoms: _592  and  _593
REMARK  237  A    between atoms: _596  and  _598
REMARK  238  A    between atoms: _598  and  _599
REMARK  239  A    between atoms: _598  and  _601
REMARK                            x       y       z     vdW  Elec       q    Type
REMARK                         _______ _______ _______ _____ _____    ______ ____
ROOT
ATOM      1  CA  ILE A   3      -5.490  -9.413  19.914  0.00  0.00    +0.149 C 
ENDROOT
BRANCH   1   3
ATOM      2  C   ILE A   2      -7.851  -8.869  20.282  0.00  0.00    +0.241 C 
ATOM      3  N   ILE A   3      -6.651  -9.180  20.758  0.00  0.00    -0.297 N 
ATOM      4  H   ILE A   3      -6.535  -9.261  21.788  0.00  0.00    +0.150 HD
ATOM      5  O   ILE A   2      -8.100  -8.748  19.082  0.00  0.00    -0.273 OA
BRANCH   2   6
ATOM      6  CA  ILE A   2      -8.921  -8.606  21.329  0.00  0.00    +0.148 C 
BRANCH   6   9
ATOM      7  C   GLN A   1      -8.685  -6.278  21.943  0.00  0.00    +0.238 C 
ATOM      8  O   GLN A   1      -8.162  -6.519  23.034  0.00  0.00    -0.274 OA
ATOM      9  N   ILE A   2      -9.262  -7.203  21.188  0.00  0.00    -0.297 N 
ATOM     10  H   ILE A   2      -9.971  -6.918  20.483  0.00  0.00    +0.150 HD
BRANCH   7  11
ATOM     11  CA  GLN A   1      -8.708  -4.873  21.382  0.00  0.00    +0.145 C 
BRANCH  11  12
ATOM     12  N   GLN A   1      -8.374  -3.912  22.420  0.00  0.00    -0.238 NA
ATOM     13  H   GLN A   1      -7.506  -4.051  22.975  0.00  0.00    +0.142 HD
ENDBRANCH  11  12
BRANCH  11  14
ATOM     14  CB  GLN A   1      -7.681  -4.822  20.249  0.00  0.00    +0.036 C 
BRANCH  14  15
ATOM     15  CG  GLN A   1      -7.632  -3.527  19.474  0.00  0.00    +0.087 C 
BRANCH  15  16
ATOM     16  CD  GLN A   1      -6.610  -3.578  18.352  0.00  0.00    +0.219 C 
ATOM     17  NE2 GLN A   1      -5.925  -2.464  18.128  0.00  0.00    -0.329 N 
ATOM     18 HE21 GLN A   1      -6.110  -1.616  18.701  0.00  0.00    +0.145 HD
ATOM     19 HE22 GLN A   1      -5.203  -2.439  17.379  0.00  0.00    +0.145 HD
ATOM     20  OE1 GLN A   1      -6.431  -4.612  17.702  0.00  0.00    -0.275 OA
ENDBRANCH  15  16
ENDBRANCH  14  15
ENDBRANCH  11  14
ENDBRANCH   7  11
ENDBRANCH   6   9
BRANCH   6  21
ATOM     21  CB  ILE A   2     -10.130  -9.528  21.116  0.00  0.00    +0.027 C 
ATOM     22  CG2 ILE A   2      -9.672 -10.965  20.922  0.00  0.00    +0.002 C 
BRANCH  21  23
ATOM     23  CG1 ILE A   2     -11.056  -9.453  22.328  0.00  0.00    +0.002 C 
ATOM     24  CD1 ILE A   2     -12.403 -10.088  22.105  0.00  0.00    +0.000 C 
ENDBRANCH  21  23
ENDBRANCH   6  21
ENDBRANCH   2   6
ENDBRANCH   1   3
BRANCH   1  25
ATOM     25  C   ILE A   3      -5.040 -10.847  20.118  0.00  0.00    +0.241 C 
ATOM     26  O   ILE A   3      -4.504 -11.190  21.171  0.00  0.00    -0.273 OA
ATOM     27  N   LEU A   4      -5.261 -11.700  19.125  0.00  0.00    -0.297 N 
ATOM     28  H   LEU A   4      -5.694 -11.378  18.236  0.00  0.00    +0.150 HD
BRANCH  27  29
ATOM     29  CA  LEU A   4      -4.885 -13.095  19.304  0.00  0.00    +0.149 C 
BRANCH  29  30
ATOM     30  C   LEU A   4      -4.395 -13.781  18.041  0.00  0.00    +0.241 C 
ATOM     31  N   SER A   5      -3.675 -14.875  18.253  0.00  0.00    -0.295 N 
ATOM     32  H   SER A   5      -3.400 -15.113  19.228  0.00  0.00    +0.150 HD
ATOM     33  O   LEU A   4      -4.649 -13.334  16.920  0.00  0.00    -0.273 OA
BRANCH  31  34
ATOM     34  CA  SER A   5      -3.257 -15.751  17.177  0.00  0.00    +0.178 C 
BRANCH  34  35
ATOM     35  C   SER A   5      -3.563 -17.176  17.593  0.00  0.00    +0.243 C 
ATOM     36  O   SER A   5      -3.511 -17.510  18.779  0.00  0.00    -0.273 OA
ATOM     37  N   VAL A   6      -3.905 -18.007  16.618  0.00  0.00    -0.298 N 
ATOM     38  H   VAL A   6      -4.058 -17.633  15.660  0.00  0.00    +0.150 HD
BRANCH  37  39
ATOM     39  CA  VAL A   6      -4.070 -19.433  16.862  0.00  0.00    +0.137 C 
BRANCH  39  40
ATOM     40  CB  VAL A   6      -5.549 -19.876  16.817  0.00  0.00    +0.026 C 
ATOM     41  CG2 VAL A   6      -6.386 -19.031  17.769  0.00  0.00    +0.002 C 
ATOM     42  CG1 VAL A   6      -6.103 -19.801  15.398  0.00  0.00    +0.002 C 
ENDBRANCH  39  40
BRANCH  39  43
ATOM     43  C   VAL A   6      -3.280 -20.205  15.821  0.00  0.00    +0.227 C 
ATOM     44  O   VAL A   6      -3.076 -19.731  14.703  0.00  0.00    -0.286 OA
ENDBRANCH  39  43
ENDBRANCH  37  39
ENDBRANCH  34  35
BRANCH  34  45
ATOM     45  CB  SER A   5      -1.758 -15.605  16.911  0.00  0.00    +0.166 C 
BRANCH  45  46
ATOM     46  OG  SER A   5      -1.435 -14.280  16.526  0.00  0.00    -0.380 OA
ATOM     47  H   SER A   5      -1.691 -13.655  17.250  0.00  0.00    +0.211 HD
ENDBRANCH  45  46
ENDBRANCH  34  45
ENDBRANCH  31  34
ENDBRANCH  29  30
BRANCH  29  48
ATOM     48  CB  LEU A   4      -6.036 -13.894  19.933  0.00  0.00    +0.029 C 
BRANCH  48  49
ATOM     49  CG  LEU A   4      -7.354 -14.052  19.170  0.00  0.00    +0.002 C 
ATOM     50  CD2 LEU A   4      -8.479 -14.427  20.131  0.00  0.00    +0.000 C 
ATOM     51  CD1 LEU A   4      -7.231 -15.105  18.074  0.00  0.00    +0.000 C 
ENDBRANCH  48  49
ENDBRANCH  29  48
ENDBRANCH  27  29
ENDBRANCH   1  25
BRANCH   1  52
ATOM     52  CB  ILE A   3      -4.326  -8.481  20.309  0.00  0.00    +0.027 C 
ATOM     53  CG2 ILE A   3      -3.099  -8.739  19.445  0.00  0.00    +0.002 C 
BRANCH  52  54
ATOM     54  CG1 ILE A   3      -4.755  -7.017  20.206  0.00  0.00    +0.002 C 
ATOM     55  CD1 ILE A   3      -3.659  -6.043  20.549  0.00  0.00    +0.000 C 
ENDBRANCH  52  54
ENDBRANCH   1  52
TORSDOF 24
REMARK  Name = ../refined-set-2016/3rux/3rux_pocket.pdb
REMARK  239 active torsions:
REMARK  status: ('A' for Active; 'I' for Inactive)
REMARK    1  A    between atoms: _1  and  _3
REMARK    2  A    between atoms: _3  and  _4
REMARK    3  A    between atoms: _3  and  _6
REMARK    4  A    between atoms: _6  and  _7
REMARK    5  A    between atoms: _10  and  _12
REMARK    6  A    between atoms: _12  and  _13
REMARK    7  A    between atoms: _15  and  _17
REMARK    8  A    between atoms: _17  and  _18
REMARK    9  A    between atoms: _17  and  _20
REMARK   10  A    between atoms: _20  and  _21
REMARK   11  A    between atoms: _23  and  _25
REMARK   12  A    between atoms: _25  and  _26
REMARK   13  A    between atoms: _25  and  _28
REMARK   14  A    between atoms: _28  and  _29
REMARK   15  A    between atoms: _32  and  _34
REMARK   16  A    between atoms: _34  and  _35
REMARK   17  A    between atoms: _34  and  _37
REMARK   18  A    between atoms: _37  and  _38
REMARK   19  A    between atoms: _43  and  _45
REMARK   20  A    between atoms: _45  and  _46
REMARK   21  A    between atoms: _49  and  _51
REMARK   22  A    between atoms: _51  and  _52
REMARK   23  A    between atoms: _51  and  _54
REMARK   24  A    between atoms: _54  and  _55
REMARK   25  A    between atoms: _58  and  _60
REMARK   26  A    between atoms: _60  and  _61
REMARK   27  A    between atoms: _60  and  _63
REMARK   28  A    between atoms: _63  and  _64
REMARK   29  A    between atoms: _67  and  _69
REMARK   30  A    between atoms: _69  and  _70
REMARK   31  A    between atoms: _69  and  _72
REMARK   32  A    between atoms: _72  and  _73
REMARK   33  A    between atoms: _76  and  _78
REMARK   34  A    between atoms: _78  and  _79
REMARK   35  A    between atoms: _78  and  _81
REMARK   36  A    between atoms: _81  and  _82
REMARK   37  A    between atoms: _85  and  _87
REMARK   38  A    between atoms: _87  and  _88
REMARK   39  A    between atoms: _91  and  _93
REMARK   40  A    between atoms: _93  and  _94
REMARK   41  A    between atoms: _93  and  _96
REMARK   42  A    between atoms: _96  and  _97
REMARK   43  A    between atoms: _97  and  _98
REMARK   44  A    between atoms: _103  and  _105
REMARK   45  A    between atoms: _105  and  _106
REMARK   46  A    between atoms: _105  and  _108
REMARK   47  A    between atoms: _108  and  _109
REMARK   48  A    between atoms: _112  and  _114
REMARK   49  A    between atoms: _114  and  _115
REMARK   50  A    between atoms: _118  and  _120
REMARK   51  A    between atoms: _120  and  _121
REMARK   52  A    between atoms: _123  and  _125
REMARK   53  A    between atoms: _125  and  _126
REMARK   54  A    between atoms: _125  and  _128
REMARK   55  A    between atoms: _128  and  _129
REMARK   56  A    between atoms: _129  and  _130
REMARK   57  A    between atoms: _130  and  _131
REMARK   58  A    between atoms: _140  and  _142
REMARK   59  A    between atoms: _142  and  _143
REMARK   60  A    between atoms: _145  and  _147
REMARK   61  A    between atoms: _147  and  _148
REMARK   62  A    between atoms: _147  and  _150
REMARK   63  A    between atoms: _150  and  _151
REMARK   64  A    between atoms: _151  and  _152
REMARK   65  A    between atoms: _152  and  _153
REMARK   66  A    between atoms: _162  and  _164
REMARK   67  A    between atoms: _164  and  _165
REMARK   68  A    between atoms: _164  and  _167
REMARK   69  A    between atoms: _167  and  _168
REMARK   70  A    between atoms: _173  and  _175
REMARK   71  A    between atoms: _175  and  _176
REMARK   72  A    between atoms: _178  and  _180
REMARK   73  A    between atoms: _180  and  _181
REMARK   74  A    between atoms: _180  and  _183
REMARK   75  A    between atoms: _183  and  _184
REMARK   76  A    between atoms: _184  and  _185
REMARK   77  A    between atoms: _185  and  _186
REMARK   78  A    between atoms: _195  and  _197
REMARK   79  A    between atoms: _197  and  _198
REMARK   80  A    between atoms: _200  and  _202
REMARK   81  A    between atoms: _202  and  _203
REMARK   82  A    between atoms: _202  and  _205
REMARK   83  A    between atoms: _205  and  _206
REMARK   84  A    between atoms: _216  and  _218
REMARK   85  A    between atoms: _218  and  _219
REMARK   86  A    between atoms: _222  and  _224
REMARK   87  A    between atoms: _224  and  _225
REMARK   88  A    between atoms: _228  and  _230
REMARK   89  A    between atoms: _230  and  _231
REMARK   90  A    between atoms: _230  and  _233
REMARK   91  A    between atoms: _233  and  _234
REMARK   92  A    between atoms: _237  and  _239
REMARK   93  A    between atoms: _239  and  _240
REMARK   94  A    between atoms: _239  and  _242
REMARK   95  A    between atoms: _242  and  _243
REMARK   96  A    between atoms: _243  and  _244
REMARK   97  A    between atoms: _249  and  _251
REMARK   98  A    between atoms: _251  and  _252
REMARK   99  A    between atoms: _251  and  _254
REMARK  100  A    between atoms: _254  and  _255
REMARK  101  A    between atoms: _258  and  _260
REMARK  102  A    between atoms: _260  and  _261
REMARK  103  A    between atoms: _260  and  _263
REMARK  104  A    between atoms: _263  and  _264
REMARK  105  A    between atoms: _267  and  _269
REMARK  106  A    between atoms: _269  and  _270
REMARK  107  A    between atoms: _269  and  _272
REMARK  108  A    between atoms: _272  and  _273
REMARK  109  A    between atoms: _276  and  _278
REMARK  110  A    between atoms: _278  and  _279
REMARK  111  A    between atoms: _278  and  _281
REMARK  112  A    between atoms: _281  and  _282
REMARK  113  A    between atoms: _284  and  _286
REMARK  114  A    between atoms: _286  and  _287
REMARK  115  A    between atoms: _286  and  _289
REMARK  116  A    between atoms: _292  and  _294
REMARK  117  A    between atoms: _294  and  _295
REMARK  118  A    between atoms: _294  and  _297
REMARK  119  A    between atoms: _297  and  _298
REMARK  120  A    between atoms: _298  and  _299
REMARK  121  A    between atoms: _299  and  _300
REMARK  122  A    between atoms: _300  and  _301
REMARK  123  A    between atoms: _305  and  _307
REMARK  124  A    between atoms: _307  and  _308
REMARK  125  A    between atoms: _307  and  _310
REMARK  126  A    between atoms: _310  and  _311
REMARK  127  A    between atoms: _322  and  _323
REMARK  128  A    between atoms: _328  and  _330
REMARK  129  A    between atoms: _330  and  _331
REMARK  130  A    between atoms: _330  and  _333
REMARK  131  A    between atoms: _333  and  _334
REMARK  132  A    between atoms: _339  and  _341
REMARK  133  A    between atoms: _341  and  _342
REMARK  134  A    between atoms: _341  and  _344
REMARK  135  A    between atoms: _344  and  _345
REMARK  136  A    between atoms: _348  and  _350
REMARK  137  A    between atoms: _350  and  _351
REMARK  138  A    between atoms: _350  and  _353
REMARK  139  A    between atoms: _356  and  _358
REMARK  140  A    between atoms: _358  and  _359
REMARK  141  A    between atoms: _361  and  _363
REMARK  142  A    between atoms: _363  and  _364
REMARK  143  A    between atoms: _363  and  _366
REMARK  144  A    between atoms: _366  and  _367
REMARK  145  A    between atoms: _367  and  _368
REMARK  146  A    between atoms: _368  and  _369
REMARK  147  A    between atoms: _369  and  _370
REMARK  148  A    between atoms: _374  and  _376
REMARK  149  A    between atoms: _376  and  _377
REMARK  150  A    between atoms: _376  and  _379
REMARK  151  A    between atoms: _379  and  _380
REMARK  152  A    between atoms: _383  and  _385
REMARK  153  A    between atoms: _385  and  _386
REMARK  154  A    between atoms: _389  and  _391
REMARK  155  A    between atoms: _391  and  _392
REMARK  156  A    between atoms: _394  and  _396
REMARK  157  A    between atoms: _396  and  _397
REMARK  158  A    between atoms: _396  and  _399
REMARK  159  A    between atoms: _399  and  _400
REMARK  160  A    between atoms: _403  and  _405
REMARK  161  A    between atoms: _405  and  _406
REMARK  162  A    between atoms: _405  and  _408
REMARK  163  A    between atoms: _408  and  _409
REMARK  164  A    between atoms: _412  and  _414
REMARK  165  A    between atoms: _414  and  _415
REMARK  166  A    between atoms: _418  and  _420
REMARK  167  A    between atoms: _420  and  _421
REMARK  168  A    between atoms: _420  and  _423
REMARK  169  A    between atoms: _423  and  _424
REMARK  170  A    between atoms: _424  and  _425
REMARK  171  A    between atoms: _428  and  _430
REMARK  172  A    between atoms: _430  and  _431
REMARK  173  A    between atoms: _430  and  _433
REMARK  174  A    between atoms: _436  and  _438
REMARK  175  A    between atoms: _438  and  _439
REMARK  176  A    between atoms: _438  and  _441
REMARK  177  A    between atoms: _441  and  _442
REMARK  178  A    between atoms: _445  and  _447
REMARK  179  A    between atoms: _447  and  _448
REMARK  180  A    between atoms: _450  and  _452
REMARK  181  A    between atoms: _452  and  _453
REMARK  182  A    between atoms: _452  and  _455
REMARK  183  A    between atoms: _458  and  _460
REMARK  184  A    between atoms: _460  and  _461
REMARK  185  A    between atoms: _463  and  _465
REMARK  186  A    between atoms: _465  and  _466
REMARK  187  A    between atoms: _465  and  _468
REMARK  188  A    between atoms: _468  and  _469
REMARK  189  A    between atoms: _472  and  _474
REMARK  190  A    between atoms: _474  and  _475
REMARK  191  A    between atoms: _474  and  _477
REMARK  192  A    between atoms: _477  and  _478
REMARK  193  A    between atoms: _483  and  _485
REMARK  194  A    between atoms: _485  and  _486
REMARK  195  A    between atoms: _485  and  _488
REMARK  196  A    between atoms: _491  and  _493
REMARK  197  A    between atoms: _493  and  _494
REMARK  198  A    between atoms: _493  and  _496
REMARK  199  A    between atoms: _496  and  _497
REMARK  200  A    between atoms: _497  and  _498
REMARK  201  A    between atoms: _503  and  _505
REMARK  202  A    between atoms: _505  and  _506
REMARK  203  A    between atoms: _510  and  _511
REMARK  204  A    between atoms: _516  and  _518
REMARK  205  A    between atoms: _518  and  _519
REMARK  206  A    between atoms: _518  and  _521
REMARK  207  A    between atoms: _521  and  _522
REMARK  208  A    between atoms: _522  and  _523
REMARK  209  A    between atoms: _526  and  _528
REMARK  210  A    between atoms: _528  and  _529
REMARK  211  A    between atoms: _528  and  _531
REMARK  212  A    between atoms: _534  and  _536
REMARK  213  A    between atoms: _536  and  _537
REMARK  214  A    between atoms: _536  and  _539
REMARK  215  A    between atoms: _539  and  _540
REMARK  216  A    between atoms: _544  and  _545
REMARK  217  A    between atoms: _550  and  _552
REMARK  218  A    between atoms: _552  and  _553
REMARK  219  A    between atoms: _552  and  _555
REMARK  220  A    between atoms: _555  and  _556
REMARK  221  A    between atoms: _559  and  _561
REMARK  222  A    between atoms: _561  and  _562
REMARK  223  A    between atoms: _565  and  _567
REMARK  224  A    between atoms: _567  and  _568
REMARK  225  A    between atoms: _567  and  _570
REMARK  226  A    between atoms: _570  and  _571
REMARK  227  A    between atoms: _574  and  _576
REMARK  228  A    between atoms: _576  and  _577
REMARK  229  A    between atoms: _576  and  _579
REMARK  230  A    between atoms: _579  and  _580
REMARK  231  A    between atoms: _582  and  _584
REMARK  232  A    between atoms: _584  and  _585
REMARK  233  A    between atoms: _587  and  _589
REMARK  234  A    between atoms: _589  and  _590
REMARK  235  A    between atoms: _589  and  _592
REMARK  236  A    between atoms: _592  and  _593
REMARK  237  A    between atoms: _596  and  _598
REMARK  238  A    between atoms: _598  and  _599
REMARK  239  A    between atoms: _598  and  _601
REMARK                            x       y       z     vdW  Elec       q    Type
REMARK                         _______ _______ _______ _____ _____    ______ ____
ROOT
ATOM      1  C   TRP A   2     -10.918  -8.717   0.835  0.00  0.00    +0.244 C 
ATOM      2  N   PRO A   3      -9.861  -9.380   1.335  0.00  0.00    -0.272 N 
ATOM      3  CA  PRO A   3      -9.831 -10.792   1.707  0.00  0.00    +0.152 C 
ATOM      4  CB  PRO A   3      -8.504 -11.249   1.113  0.00  0.00    +0.031 C 
ATOM      5  CG  PRO A   3      -7.611 -10.068   1.321  0.00  0.00    +0.024 C 
ATOM      6  CD  PRO A   3      -8.496  -8.829   1.245  0.00  0.00    +0.094 C 
ATOM      7  O   TRP A   2     -10.836  -7.563   0.424  0.00  0.00    -0.273 OA
ENDROOT
BRANCH   3   8
ATOM      8  C   PRO A   3      -9.799 -11.032   3.215  0.00  0.00    +0.241 C 
ATOM      9  N   ASN A   4      -9.723  -9.953   4.002  0.00  0.00    -0.297 N 
ATOM     10  H   ASN A   4      -9.884  -9.014   3.586  0.00  0.00    +0.150 HD
ATOM     11  O   PRO A   3      -9.889 -12.182   3.637  0.00  0.00    -0.273 OA
BRANCH   9  12
ATOM     12  CA  ASN A   4      -9.420 -10.053   5.433  0.00  0.00    +0.158 C 
BRANCH  12  13
ATOM     13  C   ASN A   4     -10.024  -8.997   6.377  0.00  0.00    +0.241 C 
ATOM     14  O   ASN A   4      -9.551  -8.857   7.508  0.00  0.00    -0.273 OA
ATOM     15  N   ASP A   5     -11.047  -8.262   5.945  0.00  0.00    -0.297 N 
ATOM     16  H   ASP A   5     -11.494  -8.483   5.033  0.00  0.00    +0.150 HD
BRANCH  15  17
ATOM     17  CA  ASP A   5     -11.541  -7.153   6.742  0.00  0.00    +0.160 C 
BRANCH  17  18
ATOM     18  C   ASP A   5     -12.948  -7.435   7.242  0.00  0.00    +0.241 C 
ATOM     19  N   VAL A   6     -13.172  -7.186   8.526  0.00  0.00    -0.298 N 
ATOM     20  H   VAL A   6     -12.367  -7.035   9.167  0.00  0.00    +0.150 HD
ATOM     21  O   ASP A   5     -13.813  -7.875   6.484  0.00  0.00    -0.273 OA
BRANCH  19  22
ATOM     22  CA  VAL A   6     -14.525  -7.121   9.049  0.00  0.00    +0.137 C 
BRANCH  22  23
ATOM     23  CB  VAL A   6     -14.628  -7.754  10.454  0.00  0.00    +0.026 C 
ATOM     24  CG2 VAL A   6     -16.054  -7.634  10.986  0.00  0.00    +0.002 C 
ATOM     25  CG1 VAL A   6     -14.175  -9.214  10.416  0.00  0.00    +0.002 C 
ENDBRANCH  22  23
BRANCH  22  26
ATOM     26  C   VAL A   6     -14.901  -5.647   9.120  0.00  0.00    +0.227 C 
ATOM     27  O   VAL A   6     -14.247  -4.867   9.813  0.00  0.00    -0.286 OA
ENDBRANCH  22  26
ENDBRANCH  19  22
ENDBRANCH  17  18
BRANCH  17  28
ATOM     28  CB  ASP A   5     -11.548  -5.867   5.922  0.00  0.00    +0.143 C 
BRANCH  28  29
ATOM     29  CG  ASP A   5     -10.160  -5.319   5.684  0.00  0.00    +0.367 C 
ATOM     30  OD2 ASP A   5      -9.173  -6.028   5.975  0.00  0.00    -0.246 OA
ATOM     31  OD1 ASP A   5     -10.059  -4.177   5.193  0.00  0.00    -0.246 OA
ENDBRANCH  28  29
ENDBRANCH  17  28
ENDBRANCH  15  17
ENDBRANCH  12  13
BRANCH  12  32
ATOM     32  CB  ASN A   4      -7.902 -10.026   5.628  0.00  0.00    +0.114 C 
BRANCH  32  33
ATOM     33  CG  ASN A   4      -7.307  -8.647   5.377  0.00  0.00    +0.222 C 
ATOM     34  ND2 ASN A   4      -6.369  -8.242   6.225  0.00  0.00    -0.329 N 
ATOM     35 HD21 ASN A   4      -6.072  -8.861   7.006  0.00  0.00    +0.145 HD
ATOM     36 HD22 ASN A   4      -5.931  -7.306   6.108  0.00  0.00    +0.145 HD
ATOM     37  OD1 ASN A   4      -7.694  -7.952   4.436  0.00  0.00    -0.275 OA
ENDBRANCH  32  33
ENDBRANCH  12  32
ENDBRANCH   9  12
ENDBRANCH   3   8
BRANCH   1  38
ATOM     38  CA  TRP A   2     -12.250  -9.460   0.751  0.00  0.00    +0.153 C 
BRANCH  38  41
ATOM     39  C   LYS A   1     -13.347  -8.078   2.407  0.00  0.00    +0.238 C 
ATOM     40  O   LYS A   1     -12.510  -8.371   3.259  0.00  0.00    -0.274 OA
ATOM     41  N   TRP A   2     -13.309  -8.553   1.169  0.00  0.00    -0.297 N 
ATOM     42  H   TRP A   2     -14.045  -8.274   0.489  0.00  0.00    +0.150 HD
BRANCH  39  43
ATOM     43  CA  LYS A   1     -14.500  -7.148   2.739  0.00  0.00    +0.145 C 
BRANCH  43  44
ATOM     44  N   LYS A   1     -15.174  -7.639   3.936  0.00  0.00    -0.238 NA
ATOM     45  H   LYS A   1     -14.743  -7.467   4.867  0.00  0.00    +0.142 HD
ENDBRANCH  43  44
BRANCH  43  46
ATOM     46  CB  LYS A   1     -13.975  -5.722   2.927  0.00  0.00    +0.026 C 
BRANCH  46  47
ATOM     47  CG  LYS A   1     -13.151  -5.235   1.729  0.00  0.00    -0.000 C 
BRANCH  47  48
ATOM     48  CD  LYS A   1     -13.118  -3.717   1.614  0.00  0.00    -0.024 C 
BRANCH  48  49
ATOM     49  CE  LYS A   1     -12.012  -3.111   2.454  0.00  0.00    -0.086 C 
BRANCH  49  50
ATOM     50  NZ  LYS A   1     -11.896  -1.646   2.207  0.00  0.00    +0.380 N 
ATOM     51  HZ1 LYS A   1     -11.132  -1.256   2.795  0.00  0.00    -0.089 HD
ATOM     52  HZ2 LYS A   1     -12.794  -1.182   2.452  0.00  0.00    -0.089 HD
ATOM     53  HZ3 LYS A   1     -11.682  -1.481   1.203  0.00  0.00    -0.089 HD
ENDBRANCH  49  50
ENDBRANCH  48  49
ENDBRANCH  47  48
ENDBRANCH  46  47
ENDBRANCH  43  46
ENDBRANCH  39  43
ENDBRANCH  38  41
BRANCH  38  54
ATOM     54  CB  TRP A   2     -12.516  -9.929  -0.680  0.00  0.00    +0.057 C 
BRANCH  54  55
ATOM     55  CG  TRP A   2     -11.576 -10.982  -1.165  0.00  0.00    -0.002 A 
ATOM     56  CD1 TRP A   2     -11.760 -12.334  -1.108  0.00  0.00    +0.068 A 
ATOM     57  NE1 TRP A   2     -10.681 -12.980  -1.652  0.00  0.00    -0.352 N 
ATOM     58  HE1 TRP A   2     -10.570 -14.011  -1.729  0.00  0.00    +0.166 HD
ATOM     59  CE2 TRP A   2      -9.771 -12.046  -2.078  0.00  0.00    +0.056 A 
ATOM     60  CZ2 TRP A   2      -8.529 -12.216  -2.689  0.00  0.00    +0.017 A 
ATOM     61  CH2 TRP A   2      -7.827 -11.089  -3.009  0.00  0.00    +0.001 A 
ATOM     62  CZ3 TRP A   2      -8.329  -9.808  -2.730  0.00  0.00    +0.000 A 
ATOM     63  CE3 TRP A   2      -9.560  -9.640  -2.123  0.00  0.00    +0.001 A 
ATOM     64  CD2 TRP A   2     -10.305 -10.775  -1.787  0.00  0.00    +0.013 A 
ENDBRANCH  54  55
ENDBRANCH  38  54
ENDBRANCH   1  38
TORSDOF 23
REMARK  Name = ../refined-set-2016/3rux/3rux_pocket.pdb
REMARK  239 active torsions:
REMARK  status: ('A' for Active; 'I' for Inactive)
REMARK    1  A    between atoms: _1  and  _3
REMARK    2  A    between atoms: _3  and  _4
REMARK    3  A    between atoms: _3  and  _6
REMARK    4  A    between atoms: _6  and  _7
REMARK    5  A    between atoms: _10  and  _12
REMARK    6  A    between atoms: _12  and  _13
REMARK    7  A    between atoms: _15  and  _17
REMARK    8  A    between atoms: _17  and  _18
REMARK    9  A    between atoms: _17  and  _20
REMARK   10  A    between atoms: _20  and  _21
REMARK   11  A    between atoms: _23  and  _25
REMARK   12  A    between atoms: _25  and  _26
REMARK   13  A    between atoms: _25  and  _28
REMARK   14  A    between atoms: _28  and  _29
REMARK   15  A    between atoms: _32  and  _34
REMARK   16  A    between atoms: _34  and  _35
REMARK   17  A    between atoms: _34  and  _37
REMARK   18  A    between atoms: _37  and  _38
REMARK   19  A    between atoms: _43  and  _45
REMARK   20  A    between atoms: _45  and  _46
REMARK   21  A    between atoms: _49  and  _51
REMARK   22  A    between atoms: _51  and  _52
REMARK   23  A    between atoms: _51  and  _54
REMARK   24  A    between atoms: _54  and  _55
REMARK   25  A    between atoms: _58  and  _60
REMARK   26  A    between atoms: _60  and  _61
REMARK   27  A    between atoms: _60  and  _63
REMARK   28  A    between atoms: _63  and  _64
REMARK   29  A    between atoms: _67  and  _69
REMARK   30  A    between atoms: _69  and  _70
REMARK   31  A    between atoms: _69  and  _72
REMARK   32  A    between atoms: _72  and  _73
REMARK   33  A    between atoms: _76  and  _78
REMARK   34  A    between atoms: _78  and  _79
REMARK   35  A    between atoms: _78  and  _81
REMARK   36  A    between atoms: _81  and  _82
REMARK   37  A    between atoms: _85  and  _87
REMARK   38  A    between atoms: _87  and  _88
REMARK   39  A    between atoms: _91  and  _93
REMARK   40  A    between atoms: _93  and  _94
REMARK   41  A    between atoms: _93  and  _96
REMARK   42  A    between atoms: _96  and  _97
REMARK   43  A    between atoms: _97  and  _98
REMARK   44  A    between atoms: _103  and  _105
REMARK   45  A    between atoms: _105  and  _106
REMARK   46  A    between atoms: _105  and  _108
REMARK   47  A    between atoms: _108  and  _109
REMARK   48  A    between atoms: _112  and  _114
REMARK   49  A    between atoms: _114  and  _115
REMARK   50  A    between atoms: _118  and  _120
REMARK   51  A    between atoms: _120  and  _121
REMARK   52  A    between atoms: _123  and  _125
REMARK   53  A    between atoms: _125  and  _126
REMARK   54  A    between atoms: _125  and  _128
REMARK   55  A    between atoms: _128  and  _129
REMARK   56  A    between atoms: _129  and  _130
REMARK   57  A    between atoms: _130  and  _131
REMARK   58  A    between atoms: _140  and  _142
REMARK   59  A    between atoms: _142  and  _143
REMARK   60  A    between atoms: _145  and  _147
REMARK   61  A    between atoms: _147  and  _148
REMARK   62  A    between atoms: _147  and  _150
REMARK   63  A    between atoms: _150  and  _151
REMARK   64  A    between atoms: _151  and  _152
REMARK   65  A    between atoms: _152  and  _153
REMARK   66  A    between atoms: _162  and  _164
REMARK   67  A    between atoms: _164  and  _165
REMARK   68  A    between atoms: _164  and  _167
REMARK   69  A    between atoms: _167  and  _168
REMARK   70  A    between atoms: _173  and  _175
REMARK   71  A    between atoms: _175  and  _176
REMARK   72  A    between atoms: _178  and  _180
REMARK   73  A    between atoms: _180  and  _181
REMARK   74  A    between atoms: _180  and  _183
REMARK   75  A    between atoms: _183  and  _184
REMARK   76  A    between atoms: _184  and  _185
REMARK   77  A    between atoms: _185  and  _186
REMARK   78  A    between atoms: _195  and  _197
REMARK   79  A    between atoms: _197  and  _198
REMARK   80  A    between atoms: _200  and  _202
REMARK   81  A    between atoms: _202  and  _203
REMARK   82  A    between atoms: _202  and  _205
REMARK   83  A    between atoms: _205  and  _206
REMARK   84  A    between atoms: _216  and  _218
REMARK   85  A    between atoms: _218  and  _219
REMARK   86  A    between atoms: _222  and  _224
REMARK   87  A    between atoms: _224  and  _225
REMARK   88  A    between atoms: _228  and  _230
REMARK   89  A    between atoms: _230  and  _231
REMARK   90  A    between atoms: _230  and  _233
REMARK   91  A    between atoms: _233  and  _234
REMARK   92  A    between atoms: _237  and  _239
REMARK   93  A    between atoms: _239  and  _240
REMARK   94  A    between atoms: _239  and  _242
REMARK   95  A    between atoms: _242  and  _243
REMARK   96  A    between atoms: _243  and  _244
REMARK   97  A    between atoms: _249  and  _251
REMARK   98  A    between atoms: _251  and  _252
REMARK   99  A    between atoms: _251  and  _254
REMARK  100  A    between atoms: _254  and  _255
REMARK  101  A    between atoms: _258  and  _260
REMARK  102  A    between atoms: _260  and  _261
REMARK  103  A    between atoms: _260  and  _263
REMARK  104  A    between atoms: _263  and  _264
REMARK  105  A    between atoms: _267  and  _269
REMARK  106  A    between atoms: _269  and  _270
REMARK  107  A    between atoms: _269  and  _272
REMARK  108  A    between atoms: _272  and  _273
REMARK  109  A    between atoms: _276  and  _278
REMARK  110  A    between atoms: _278  and  _279
REMARK  111  A    between atoms: _278  and  _281
REMARK  112  A    between atoms: _281  and  _282
REMARK  113  A    between atoms: _284  and  _286
REMARK  114  A    between atoms: _286  and  _287
REMARK  115  A    between atoms: _286  and  _289
REMARK  116  A    between atoms: _292  and  _294
REMARK  117  A    between atoms: _294  and  _295
REMARK  118  A    between atoms: _294  and  _297
REMARK  119  A    between atoms: _297  and  _298
REMARK  120  A    between atoms: _298  and  _299
REMARK  121  A    between atoms: _299  and  _300
REMARK  122  A    between atoms: _300  and  _301
REMARK  123  A    between atoms: _305  and  _307
REMARK  124  A    between atoms: _307  and  _308
REMARK  125  A    between atoms: _307  and  _310
REMARK  126  A    between atoms: _310  and  _311
REMARK  127  A    between atoms: _322  and  _323
REMARK  128  A    between atoms: _328  and  _330
REMARK  129  A    between atoms: _330  and  _331
REMARK  130  A    between atoms: _330  and  _333
REMARK  131  A    between atoms: _333  and  _334
REMARK  132  A    between atoms: _339  and  _341
REMARK  133  A    between atoms: _341  and  _342
REMARK  134  A    between atoms: _341  and  _344
REMARK  135  A    between atoms: _344  and  _345
REMARK  136  A    between atoms: _348  and  _350
REMARK  137  A    between atoms: _350  and  _351
REMARK  138  A    between atoms: _350  and  _353
REMARK  139  A    between atoms: _356  and  _358
REMARK  140  A    between atoms: _358  and  _359
REMARK  141  A    between atoms: _361  and  _363
REMARK  142  A    between atoms: _363  and  _364
REMARK  143  A    between atoms: _363  and  _366
REMARK  144  A    between atoms: _366  and  _367
REMARK  145  A    between atoms: _367  and  _368
REMARK  146  A    between atoms: _368  and  _369
REMARK  147  A    between atoms: _369  and  _370
REMARK  148  A    between atoms: _374  and  _376
REMARK  149  A    between atoms: _376  and  _377
REMARK  150  A    between atoms: _376  and  _379
REMARK  151  A    between atoms: _379  and  _380
REMARK  152  A    between atoms: _383  and  _385
REMARK  153  A    between atoms: _385  and  _386
REMARK  154  A    between atoms: _389  and  _391
REMARK  155  A    between atoms: _391  and  _392
REMARK  156  A    between atoms: _394  and  _396
REMARK  157  A    between atoms: _396  and  _397
REMARK  158  A    between atoms: _396  and  _399
REMARK  159  A    between atoms: _399  and  _400
REMARK  160  A    between atoms: _403  and  _405
REMARK  161  A    between atoms: _405  and  _406
REMARK  162  A    between atoms: _405  and  _408
REMARK  163  A    between atoms: _408  and  _409
REMARK  164  A    between atoms: _412  and  _414
REMARK  165  A    between atoms: _414  and  _415
REMARK  166  A    between atoms: _418  and  _420
REMARK  167  A    between atoms: _420  and  _421
REMARK  168  A    between atoms: _420  and  _423
REMARK  169  A    between atoms: _423  and  _424
REMARK  170  A    between atoms: _424  and  _425
REMARK  171  A    between atoms: _428  and  _430
REMARK  172  A    between atoms: _430  and  _431
REMARK  173  A    between atoms: _430  and  _433
REMARK  174  A    between atoms: _436  and  _438
REMARK  175  A    between atoms: _438  and  _439
REMARK  176  A    between atoms: _438  and  _441
REMARK  177  A    between atoms: _441  and  _442
REMARK  178  A    between atoms: _445  and  _447
REMARK  179  A    between atoms: _447  and  _448
REMARK  180  A    between atoms: _450  and  _452
REMARK  181  A    between atoms: _452  and  _453
REMARK  182  A    between atoms: _452  and  _455
REMARK  183  A    between atoms: _458  and  _460
REMARK  184  A    between atoms: _460  and  _461
REMARK  185  A    between atoms: _463  and  _465
REMARK  186  A    between atoms: _465  and  _466
REMARK  187  A    between atoms: _465  and  _468
REMARK  188  A    between atoms: _468  and  _469
REMARK  189  A    between atoms: _472  and  _474
REMARK  190  A    between atoms: _474  and  _475
REMARK  191  A    between atoms: _474  and  _477
REMARK  192  A    between atoms: _477  and  _478
REMARK  193  A    between atoms: _483  and  _485
REMARK  194  A    between atoms: _485  and  _486
REMARK  195  A    between atoms: _485  and  _488
REMARK  196  A    between atoms: _491  and  _493
REMARK  197  A    between atoms: _493  and  _494
REMARK  198  A    between atoms: _493  and  _496
REMARK  199  A    between atoms: _496  and  _497
REMARK  200  A    between atoms: _497  and  _498
REMARK  201  A    between atoms: _503  and  _505
REMARK  202  A    between atoms: _505  and  _506
REMARK  203  A    between atoms: _510  and  _511
REMARK  204  A    between atoms: _516  and  _518
REMARK  205  A    between atoms: _518  and  _519
REMARK  206  A    between atoms: _518  and  _521
REMARK  207  A    between atoms: _521  and  _522
REMARK  208  A    between atoms: _522  and  _523
REMARK  209  A    between atoms: _526  and  _528
REMARK  210  A    between atoms: _528  and  _529
REMARK  211  A    between atoms: _528  and  _531
REMARK  212  A    between atoms: _534  and  _536
REMARK  213  A    between atoms: _536  and  _537
REMARK  214  A    between atoms: _536  and  _539
REMARK  215  A    between atoms: _539  and  _540
REMARK  216  A    between atoms: _544  and  _545
REMARK  217  A    between atoms: _550  and  _552
REMARK  218  A    between atoms: _552  and  _553
REMARK  219  A    between atoms: _552  and  _555
REMARK  220  A    between atoms: _555  and  _556
REMARK  221  A    between atoms: _559  and  _561
REMARK  222  A    between atoms: _561  and  _562
REMARK  223  A    between atoms: _565  and  _567
REMARK  224  A    between atoms: _567  and  _568
REMARK  225  A    between atoms: _567  and  _570
REMARK  226  A    between atoms: _570  and  _571
REMARK  227  A    between atoms: _574  and  _576
REMARK  228  A    between atoms: _576  and  _577
REMARK  229  A    between atoms: _576  and  _579
REMARK  230  A    between atoms: _579  and  _580
REMARK  231  A    between atoms: _582  and  _584
REMARK  232  A    between atoms: _584  and  _585
REMARK  233  A    between atoms: _587  and  _589
REMARK  234  A    between atoms: _589  and  _590
REMARK  235  A    between atoms: _589  and  _592
REMARK  236  A    between atoms: _592  and  _593
REMARK  237  A    between atoms: _596  and  _598
REMARK  238  A    between atoms: _598  and  _599
REMARK  239  A    between atoms: _598  and  _601
REMARK                            x       y       z     vdW  Elec       q    Type
REMARK                         _______ _______ _______ _____ _____    ______ ____
ROOT
ATOM      1  CA  GLY A   5      -8.172  -7.238  10.521  0.00  0.00    +0.176 C 
ENDROOT
BRANCH   1   3
ATOM      2  C   ALA A   4     -10.310  -6.467  11.381  0.00  0.00    +0.241 C 
ATOM      3  N   GLY A   5      -9.049  -6.823  11.599  0.00  0.00    -0.295 N 
ATOM      4  H   GLY A   5      -8.680  -6.804  12.571  0.00  0.00    +0.150 HD
ATOM      5  O   ALA A   4     -10.801  -6.393  10.253  0.00  0.00    -0.273 OA
BRANCH   2   6
ATOM      6  CA  ALA A   4     -11.137  -6.145  12.627  0.00  0.00    +0.149 C 
ATOM      7  CB  ALA A   4     -11.748  -7.425  13.203  0.00  0.00    +0.031 C 
BRANCH   6  10
ATOM      8  C   LEU A   3     -12.633  -4.349  13.327  0.00  0.00    +0.241 C 
ATOM      9  O   LEU A   3     -12.251  -4.418  14.494  0.00  0.00    -0.273 OA
ATOM     10  N   ALA A   4     -12.176  -5.150  12.367  0.00  0.00    -0.297 N 
ATOM     11  H   ALA A   4     -12.568  -5.066  11.407  0.00  0.00    +0.150 HD
BRANCH   8  12
ATOM     12  CA  LEU A   3     -13.684  -3.319  12.917  0.00  0.00    +0.149 C 
BRANCH  12  15
ATOM     13  C   LYS A   2     -12.611  -1.860  11.266  0.00  0.00    +0.241 C 
ATOM     14  O   LYS A   2     -11.893  -1.314  12.104  0.00  0.00    -0.273 OA
ATOM     15  N   LEU A   3     -13.473  -2.829  11.559  0.00  0.00    -0.297 N 
ATOM     16  H   LEU A   3     -14.021  -3.257  10.786  0.00  0.00    +0.150 HD
BRANCH  13  17
ATOM     17  CA  LYS A   2     -12.560  -1.448   9.799  0.00  0.00    +0.149 C 
BRANCH  17  19
ATOM     18  C   GLY A   1     -14.566  -0.136   9.456  0.00  0.00    +0.240 C 
ATOM     19  N   LYS A   2     -13.244  -0.177   9.585  0.00  0.00    -0.297 N 
ATOM     20  H   LYS A   2     -12.693   0.703   9.533  0.00  0.00    +0.150 HD
ATOM     21  O   GLY A   1     -15.270  -1.141   9.521  0.00  0.00    -0.274 OA
BRANCH  18  22
ATOM     22  CA  GLY A   1     -15.186   1.232   9.230  0.00  0.00    +0.169 C 
BRANCH  22  23
ATOM     23  N   GLY A   1     -16.430   1.172   8.481  0.00  0.00    -0.236 NA
ATOM     24  H   GLY A   1     -17.326   1.022   8.988  0.00  0.00    +0.142 HD
ENDBRANCH  22  23
ENDBRANCH  18  22
ENDBRANCH  17  19
BRANCH  17  25
ATOM     25  CB  LYS A   2     -11.116  -1.393   9.294  0.00  0.00    +0.029 C 
BRANCH  25  26
ATOM     26  CG  LYS A   2     -10.409  -2.739   9.348  0.00  0.00    +0.000 C 
BRANCH  26  27
ATOM     27  CD  LYS A   2      -9.226  -2.797   8.400  0.00  0.00    -0.024 C 
BRANCH  27  28
ATOM     28  CE  LYS A   2      -8.557  -4.160   8.457  0.00  0.00    -0.086 C 
BRANCH  28  29
ATOM     29  NZ  LYS A   2      -7.479  -4.278   7.445  0.00  0.00    +0.380 N 
ATOM     30  HZ1 LYS A   2      -6.759  -3.549   7.621  0.00  0.00    -0.089 HD
ATOM     31  HZ2 LYS A   2      -7.044  -5.220   7.512  0.00  0.00    -0.089 HD
ATOM     32  HZ3 LYS A   2      -7.881  -4.147   6.495  0.00  0.00    -0.089 HD
ENDBRANCH  28  29
ENDBRANCH  27  28
ENDBRANCH  26  27
ENDBRANCH  25  26
ENDBRANCH  17  25
ENDBRANCH  13  17
ENDBRANCH  12  15
BRANCH  12  33
ATOM     33  CB  LEU A   3     -15.085  -3.922  13.034  0.00  0.00    +0.029 C 
BRANCH  33  34
ATOM     34  CG  LEU A   3     -15.505  -4.562  14.357  0.00  0.00    +0.002 C 
ATOM     35  CD2 LEU A   3     -15.405  -3.562  15.485  0.00  0.00    +0.000 C 
ATOM     36  CD1 LEU A   3     -16.926  -5.080  14.242  0.00  0.00    +0.000 C 
ENDBRANCH  33  34
ENDBRANCH  12  33
ENDBRANCH   8  12
ENDBRANCH   6  10
ENDBRANCH   2   6
ENDBRANCH   1   3
BRANCH   1  37
ATOM     37  C   GLY A   5      -7.631  -8.627  10.792  0.00  0.00    +0.243 C 
ATOM     38  O   GLY A   5      -7.360  -8.973  11.940  0.00  0.00    -0.273 OA
ATOM     39  N   ILE A   6      -7.480  -9.415   9.731  0.00  0.00    -0.297 N 
ATOM     40  H   ILE A   6      -7.692  -9.030   8.788  0.00  0.00    +0.150 HD
BRANCH  39  41
ATOM     41  CA  ILE A   6      -7.029 -10.797   9.838  0.00  0.00    +0.149 C 
BRANCH  41  42
ATOM     42  C   ILE A   6      -5.701 -10.980   9.113  0.00  0.00    +0.241 C 
ATOM     43  N   LEU A   7      -4.778 -11.708   9.733  0.00  0.00    -0.297 N 
ATOM     44  H   LEU A   7      -4.969 -12.068  10.690  0.00  0.00    +0.150 HD
ATOM     45  O   ILE A   6      -5.516 -10.477   8.006  0.00  0.00    -0.273 OA
BRANCH  43  46
ATOM     46  CA  LEU A   7      -3.502 -12.010   9.094  0.00  0.00    +0.149 C 
BRANCH  46  47
ATOM     47  C   LEU A   7      -3.178 -13.493   9.204  0.00  0.00    +0.241 C 
ATOM     48  O   LEU A   7      -3.044 -14.028  10.306  0.00  0.00    -0.273 OA
ATOM     49  N   ALA A   8      -3.049 -14.149   8.054  0.00  0.00    -0.297 N 
ATOM     50  H   ALA A   8      -3.198 -13.635   7.162  0.00  0.00    +0.150 HD
BRANCH  49  51
ATOM     51  CA  ALA A   8      -2.706 -15.565   8.003  0.00  0.00    +0.149 C 
ATOM     52  CB  ALA A   8      -3.685 -16.314   7.112  0.00  0.00    +0.031 C 
BRANCH  51  53
ATOM     53  C   ALA A   8      -1.290 -15.734   7.480  0.00  0.00    +0.241 C 
ATOM     54  N   GLU A   9      -0.460 -16.432   8.243  0.00  0.00    -0.298 N 
ATOM     55  H   GLU A   9      -0.797 -16.821   9.147  0.00  0.00    +0.150 HD
ATOM     56  O   ALA A   8      -0.952 -15.242   6.405  0.00  0.00    -0.273 OA
BRANCH  54  57
ATOM     57  CA  GLU A   9       0.914 -16.659   7.831  0.00  0.00    +0.137 C 
BRANCH  57  58
ATOM     58  C   GLU A   9       1.215 -18.149   7.786  0.00  0.00    +0.227 C 
ATOM     59  O   GLU A   9       0.853 -18.898   8.696  0.00  0.00    -0.286 OA
ENDBRANCH  57  58
BRANCH  57  60
ATOM     60  CB  GLU A   9       1.884 -15.900   8.735  0.00  0.00    +0.039 C 
BRANCH  60  61
ATOM     61  CG  GLU A   9       1.700 -14.386   8.639  0.00  0.00    +0.116 C 
BRANCH  61  62
ATOM     62  CD  GLU A   9       2.679 -13.606   9.490  0.00  0.00    +0.365 C 
ATOM     63  OE2 GLU A   9       2.406 -13.416  10.693  0.00  0.00    -0.246 OA
ATOM     64  OE1 GLU A   9       3.715 -13.161   8.954  0.00  0.00    -0.246 OA
ENDBRANCH  61  62
ENDBRANCH  60  61
ENDBRANCH  57  60
ENDBRANCH  54  57
ENDBRANCH  51  53
ENDBRANCH  49  51
ENDBRANCH  46  47
BRANCH  46  65
ATOM     65  CB  LEU A   7      -2.373 -11.186   9.711  0.00  0.00    +0.029 C 
BRANCH  65  66
ATOM     66  CG  LEU A   7      -0.993 -11.400   9.084  0.00  0.00    +0.002 C 
ATOM     67  CD2 LEU A   7       0.077 -10.641   9.853  0.00  0.00    +0.000 C 
ATOM     68  CD1 LEU A   7      -0.997 -10.975   7.624  0.00  0.00    +0.000 C 
ENDBRANCH  65  66
ENDBRANCH  46  65
ENDBRANCH  43  46
ENDBRANCH  41  42
BRANCH  41  69
ATOM     69  CB  ILE A   6      -8.047 -11.770   9.202  0.00  0.00    +0.027 C 
ATOM     70  CG2 ILE A   6      -7.669 -13.216   9.496  0.00  0.00    +0.002 C 
BRANCH  69  71
ATOM     71  CG1 ILE A   6      -9.475 -11.460   9.658  0.00  0.00    +0.002 C 
ATOM     72  CD1 ILE A   6      -9.709 -11.686  11.126  0.00  0.00    +0.000 C 
ENDBRANCH  69  71
ENDBRANCH  41  69
ENDBRANCH  39  41
ENDBRANCH   1  37
TORSDOF 32
REMARK  Name = ../refined-set-2016/3rux/3rux_pocket.pdb
REMARK  239 active torsions:
REMARK  status: ('A' for Active; 'I' for Inactive)
REMARK    1  A    between atoms: _1  and  _3
REMARK    2  A    between atoms: _3  and  _4
REMARK    3  A    between atoms: _3  and  _6
REMARK    4  A    between atoms: _6  and  _7
REMARK    5  A    between atoms: _10  and  _12
REMARK    6  A    between atoms: _12  and  _13
REMARK    7  A    between atoms: _15  and  _17
REMARK    8  A    between atoms: _17  and  _18
REMARK    9  A    between atoms: _17  and  _20
REMARK   10  A    between atoms: _20  and  _21
REMARK   11  A    between atoms: _23  and  _25
REMARK   12  A    between atoms: _25  and  _26
REMARK   13  A    between atoms: _25  and  _28
REMARK   14  A    between atoms: _28  and  _29
REMARK   15  A    between atoms: _32  and  _34
REMARK   16  A    between atoms: _34  and  _35
REMARK   17  A    between atoms: _34  and  _37
REMARK   18  A    between atoms: _37  and  _38
REMARK   19  A    between atoms: _43  and  _45
REMARK   20  A    between atoms: _45  and  _46
REMARK   21  A    between atoms: _49  and  _51
REMARK   22  A    between atoms: _51  and  _52
REMARK   23  A    between atoms: _51  and  _54
REMARK   24  A    between atoms: _54  and  _55
REMARK   25  A    between atoms: _58  and  _60
REMARK   26  A    between atoms: _60  and  _61
REMARK   27  A    between atoms: _60  and  _63
REMARK   28  A    between atoms: _63  and  _64
REMARK   29  A    between atoms: _67  and  _69
REMARK   30  A    between atoms: _69  and  _70
REMARK   31  A    between atoms: _69  and  _72
REMARK   32  A    between atoms: _72  and  _73
REMARK   33  A    between atoms: _76  and  _78
REMARK   34  A    between atoms: _78  and  _79
REMARK   35  A    between atoms: _78  and  _81
REMARK   36  A    between atoms: _81  and  _82
REMARK   37  A    between atoms: _85  and  _87
REMARK   38  A    between atoms: _87  and  _88
REMARK   39  A    between atoms: _91  and  _93
REMARK   40  A    between atoms: _93  and  _94
REMARK   41  A    between atoms: _93  and  _96
REMARK   42  A    between atoms: _96  and  _97
REMARK   43  A    between atoms: _97  and  _98
REMARK   44  A    between atoms: _103  and  _105
REMARK   45  A    between atoms: _105  and  _106
REMARK   46  A    between atoms: _105  and  _108
REMARK   47  A    between atoms: _108  and  _109
REMARK   48  A    between atoms: _112  and  _114
REMARK   49  A    between atoms: _114  and  _115
REMARK   50  A    between atoms: _118  and  _120
REMARK   51  A    between atoms: _120  and  _121
REMARK   52  A    between atoms: _123  and  _125
REMARK   53  A    between atoms: _125  and  _126
REMARK   54  A    between atoms: _125  and  _128
REMARK   55  A    between atoms: _128  and  _129
REMARK   56  A    between atoms: _129  and  _130
REMARK   57  A    between atoms: _130  and  _131
REMARK   58  A    between atoms: _140  and  _142
REMARK   59  A    between atoms: _142  and  _143
REMARK   60  A    between atoms: _145  and  _147
REMARK   61  A    between atoms: _147  and  _148
REMARK   62  A    between atoms: _147  and  _150
REMARK   63  A    between atoms: _150  and  _151
REMARK   64  A    between atoms: _151  and  _152
REMARK   65  A    between atoms: _152  and  _153
REMARK   66  A    between atoms: _162  and  _164
REMARK   67  A    between atoms: _164  and  _165
REMARK   68  A    between atoms: _164  and  _167
REMARK   69  A    between atoms: _167  and  _168
REMARK   70  A    between atoms: _173  and  _175
REMARK   71  A    between atoms: _175  and  _176
REMARK   72  A    between atoms: _178  and  _180
REMARK   73  A    between atoms: _180  and  _181
REMARK   74  A    between atoms: _180  and  _183
REMARK   75  A    between atoms: _183  and  _184
REMARK   76  A    between atoms: _184  and  _185
REMARK   77  A    between atoms: _185  and  _186
REMARK   78  A    between atoms: _195  and  _197
REMARK   79  A    between atoms: _197  and  _198
REMARK   80  A    between atoms: _200  and  _202
REMARK   81  A    between atoms: _202  and  _203
REMARK   82  A    between atoms: _202  and  _205
REMARK   83  A    between atoms: _205  and  _206
REMARK   84  A    between atoms: _216  and  _218
REMARK   85  A    between atoms: _218  and  _219
REMARK   86  A    between atoms: _222  and  _224
REMARK   87  A    between atoms: _224  and  _225
REMARK   88  A    between atoms: _228  and  _230
REMARK   89  A    between atoms: _230  and  _231
REMARK   90  A    between atoms: _230  and  _233
REMARK   91  A    between atoms: _233  and  _234
REMARK   92  A    between atoms: _237  and  _239
REMARK   93  A    between atoms: _239  and  _240
REMARK   94  A    between atoms: _239  and  _242
REMARK   95  A    between atoms: _242  and  _243
REMARK   96  A    between atoms: _243  and  _244
REMARK   97  A    between atoms: _249  and  _251
REMARK   98  A    between atoms: _251  and  _252
REMARK   99  A    between atoms: _251  and  _254
REMARK  100  A    between atoms: _254  and  _255
REMARK  101  A    between atoms: _258  and  _260
REMARK  102  A    between atoms: _260  and  _261
REMARK  103  A    between atoms: _260  and  _263
REMARK  104  A    between atoms: _263  and  _264
REMARK  105  A    between atoms: _267  and  _269
REMARK  106  A    between atoms: _269  and  _270
REMARK  107  A    between atoms: _269  and  _272
REMARK  108  A    between atoms: _272  and  _273
REMARK  109  A    between atoms: _276  and  _278
REMARK  110  A    between atoms: _278  and  _279
REMARK  111  A    between atoms: _278  and  _281
REMARK  112  A    between atoms: _281  and  _282
REMARK  113  A    between atoms: _284  and  _286
REMARK  114  A    between atoms: _286  and  _287
REMARK  115  A    between atoms: _286  and  _289
REMARK  116  A    between atoms: _292  and  _294
REMARK  117  A    between atoms: _294  and  _295
REMARK  118  A    between atoms: _294  and  _297
REMARK  119  A    between atoms: _297  and  _298
REMARK  120  A    between atoms: _298  and  _299
REMARK  121  A    between atoms: _299  and  _300
REMARK  122  A    between atoms: _300  and  _301
REMARK  123  A    between atoms: _305  and  _307
REMARK  124  A    between atoms: _307  and  _308
REMARK  125  A    between atoms: _307  and  _310
REMARK  126  A    between atoms: _310  and  _311
REMARK  127  A    between atoms: _322  and  _323
REMARK  128  A    between atoms: _328  and  _330
REMARK  129  A    between atoms: _330  and  _331
REMARK  130  A    between atoms: _330  and  _333
REMARK  131  A    between atoms: _333  and  _334
REMARK  132  A    between atoms: _339  and  _341
REMARK  133  A    between atoms: _341  and  _342
REMARK  134  A    between atoms: _341  and  _344
REMARK  135  A    between atoms: _344  and  _345
REMARK  136  A    between atoms: _348  and  _350
REMARK  137  A    between atoms: _350  and  _351
REMARK  138  A    between atoms: _350  and  _353
REMARK  139  A    between atoms: _356  and  _358
REMARK  140  A    between atoms: _358  and  _359
REMARK  141  A    between atoms: _361  and  _363
REMARK  142  A    between atoms: _363  and  _364
REMARK  143  A    between atoms: _363  and  _366
REMARK  144  A    between atoms: _366  and  _367
REMARK  145  A    between atoms: _367  and  _368
REMARK  146  A    between atoms: _368  and  _369
REMARK  147  A    between atoms: _369  and  _370
REMARK  148  A    between atoms: _374  and  _376
REMARK  149  A    between atoms: _376  and  _377
REMARK  150  A    between atoms: _376  and  _379
REMARK  151  A    between atoms: _379  and  _380
REMARK  152  A    between atoms: _383  and  _385
REMARK  153  A    between atoms: _385  and  _386
REMARK  154  A    between atoms: _389  and  _391
REMARK  155  A    between atoms: _391  and  _392
REMARK  156  A    between atoms: _394  and  _396
REMARK  157  A    between atoms: _396  and  _397
REMARK  158  A    between atoms: _396  and  _399
REMARK  159  A    between atoms: _399  and  _400
REMARK  160  A    between atoms: _403  and  _405
REMARK  161  A    between atoms: _405  and  _406
REMARK  162  A    between atoms: _405  and  _408
REMARK  163  A    between atoms: _408  and  _409
REMARK  164  A    between atoms: _412  and  _414
REMARK  165  A    between atoms: _414  and  _415
REMARK  166  A    between atoms: _418  and  _420
REMARK  167  A    between atoms: _420  and  _421
REMARK  168  A    between atoms: _420  and  _423
REMARK  169  A    between atoms: _423  and  _424
REMARK  170  A    between atoms: _424  and  _425
REMARK  171  A    between atoms: _428  and  _430
REMARK  172  A    between atoms: _430  and  _431
REMARK  173  A    between atoms: _430  and  _433
REMARK  174  A    between atoms: _436  and  _438
REMARK  175  A    between atoms: _438  and  _439
REMARK  176  A    between atoms: _438  and  _441
REMARK  177  A    between atoms: _441  and  _442
REMARK  178  A    between atoms: _445  and  _447
REMARK  179  A    between atoms: _447  and  _448
REMARK  180  A    between atoms: _450  and  _452
REMARK  181  A    between atoms: _452  and  _453
REMARK  182  A    between atoms: _452  and  _455
REMARK  183  A    between atoms: _458  and  _460
REMARK  184  A    between atoms: _460  and  _461
REMARK  185  A    between atoms: _463  and  _465
REMARK  186  A    between atoms: _465  and  _466
REMARK  187  A    between atoms: _465  and  _468
REMARK  188  A    between atoms: _468  and  _469
REMARK  189  A    between atoms: _472  and  _474
REMARK  190  A    between atoms: _474  and  _475
REMARK  191  A    between atoms: _474  and  _477
REMARK  192  A    between atoms: _477  and  _478
REMARK  193  A    between atoms: _483  and  _485
REMARK  194  A    between atoms: _485  and  _486
REMARK  195  A    between atoms: _485  and  _488
REMARK  196  A    between atoms: _491  and  _493
REMARK  197  A    between atoms: _493  and  _494
REMARK  198  A    between atoms: _493  and  _496
REMARK  199  A    between atoms: _496  and  _497
REMARK  200  A    between atoms: _497  and  _498
REMARK  201  A    between atoms: _503  and  _505
REMARK  202  A    between atoms: _505  and  _506
REMARK  203  A    between atoms: _510  and  _511
REMARK  204  A    between atoms: _516  and  _518
REMARK  205  A    between atoms: _518  and  _519
REMARK  206  A    between atoms: _518  and  _521
REMARK  207  A    between atoms: _521  and  _522
REMARK  208  A    between atoms: _522  and  _523
REMARK  209  A    between atoms: _526  and  _528
REMARK  210  A    between atoms: _528  and  _529
REMARK  211  A    between atoms: _528  and  _531
REMARK  212  A    between atoms: _534  and  _536
REMARK  213  A    between atoms: _536  and  _537
REMARK  214  A    between atoms: _536  and  _539
REMARK  215  A    between atoms: _539  and  _540
REMARK  216  A    between atoms: _544  and  _545
REMARK  217  A    between atoms: _550  and  _552
REMARK  218  A    between atoms: _552  and  _553
REMARK  219  A    between atoms: _552  and  _555
REMARK  220  A    between atoms: _555  and  _556
REMARK  221  A    between atoms: _559  and  _561
REMARK  222  A    between atoms: _561  and  _562
REMARK  223  A    between atoms: _565  and  _567
REMARK  224  A    between atoms: _567  and  _568
REMARK  225  A    between atoms: _567  and  _570
REMARK  226  A    between atoms: _570  and  _571
REMARK  227  A    between atoms: _574  and  _576
REMARK  228  A    between atoms: _576  and  _577
REMARK  229  A    between atoms: _576  and  _579
REMARK  230  A    between atoms: _579  and  _580
REMARK  231  A    between atoms: _582  and  _584
REMARK  232  A    between atoms: _584  and  _585
REMARK  233  A    between atoms: _587  and  _589
REMARK  234  A    between atoms: _589  and  _590
REMARK  235  A    between atoms: _589  and  _592
REMARK  236  A    between atoms: _592  and  _593
REMARK  237  A    between atoms: _596  and  _598
REMARK  238  A    between atoms: _598  and  _599
REMARK  239  A    between atoms: _598  and  _601
REMARK                            x       y       z     vdW  Elec       q    Type
REMARK                         _______ _______ _______ _____ _____    ______ ____
ROOT
ATOM      1  C   VAL A   4      -6.768 -10.203  15.511  0.00  0.00    +0.241 C 
ATOM      2  O   VAL A   4      -6.354 -10.325  16.662  0.00  0.00    -0.273 OA
ATOM      3  N   GLY A   5      -7.022  -9.027  14.952  0.00  0.00    -0.295 N 
ATOM      4  H   GLY A   5      -7.216  -8.984  13.931  0.00  0.00    +0.150 HD
ENDROOT
BRANCH   3   5
ATOM      5  CA  GLY A   5      -7.036  -7.800  15.725  0.00  0.00    +0.176 C 
BRANCH   5   6
ATOM      6  C   GLY A   5      -8.444  -7.244  15.657  0.00  0.00    +0.243 C 
ATOM      7  N   LEU A   6      -9.156  -7.277  16.778  0.00  0.00    -0.297 N 
ATOM      8  H   LEU A   6      -8.712  -7.621  17.653  0.00  0.00    +0.150 HD
ATOM      9  O   GLY A   5      -8.889  -6.817  14.599  0.00  0.00    -0.273 OA
BRANCH   7  10
ATOM     10  CA  LEU A   6     -10.548  -6.840  16.807  0.00  0.00    +0.149 C 
BRANCH  10  11
ATOM     11  C   LEU A   6     -10.697  -5.639  17.717  0.00  0.00    +0.241 C 
ATOM     12  O   LEU A   6     -10.408  -5.720  18.908  0.00  0.00    -0.273 OA
ATOM     13  N   ASN A   7     -11.152  -4.526  17.149  0.00  0.00    -0.297 N 
ATOM     14  H   ASN A   7     -11.391  -4.534  16.137  0.00  0.00    +0.150 HD
BRANCH  13  15
ATOM     15  CA  ASN A   7     -11.324  -3.295  17.912  0.00  0.00    +0.158 C 
BRANCH  15  16
ATOM     16  C   ASN A   7     -12.574  -3.352  18.783  0.00  0.00    +0.241 C 
ATOM     17  N   VAL A   8     -12.375  -3.440  20.094  0.00  0.00    -0.298 N 
ATOM     18  H   VAL A   8     -11.403  -3.428  20.464  0.00  0.00    +0.150 HD
ATOM     19  O   ASN A   7     -13.696  -3.324  18.279  0.00  0.00    -0.273 OA
BRANCH  17  20
ATOM     20  CA  VAL A   8     -13.491  -3.553  21.024  0.00  0.00    +0.137 C 
BRANCH  20  21
ATOM     21  CB  VAL A   8     -13.166  -4.500  22.196  0.00  0.00    +0.026 C 
ATOM     22  CG2 VAL A   8     -14.337  -4.562  23.162  0.00  0.00    +0.002 C 
ATOM     23  CG1 VAL A   8     -12.825  -5.892  21.670  0.00  0.00    +0.002 C 
ENDBRANCH  20  21
BRANCH  20  24
ATOM     24  C   VAL A   8     -13.889  -2.176  21.555  0.00  0.00    +0.227 C 
ATOM     25  O   VAL A   8     -15.027  -1.748  21.375  0.00  0.00    -0.286 OA
ENDBRANCH  20  24
ENDBRANCH  17  20
ENDBRANCH  15  16
BRANCH  15  26
ATOM     26  CB  ASN A   7     -11.385  -2.087  16.971  0.00  0.00    +0.114 C 
BRANCH  26  27
ATOM     27  CG  ASN A   7     -10.090  -1.876  16.198  0.00  0.00    +0.222 C 
ATOM     28  OD1 ASN A   7      -8.995  -1.937  16.762  0.00  0.00    -0.275 OA
ATOM     29  ND2 ASN A   7     -10.212  -1.621  14.899  0.00  0.00    -0.329 N 
ATOM     30 HD21 ASN A   7     -11.156  -1.579  14.464  0.00  0.00    +0.145 HD
ATOM     31 HD22 ASN A   7      -9.364  -1.464  14.318  0.00  0.00    +0.145 HD
ENDBRANCH  26  27
ENDBRANCH  15  26
ENDBRANCH  13  15
ENDBRANCH  10  11
BRANCH  10  32
ATOM     32  CB  LEU A   6     -11.458  -7.966  17.302  0.00  0.00    +0.029 C 
BRANCH  32  33
ATOM     33  CG  LEU A   6     -12.886  -7.577  17.695  0.00  0.00    +0.002 C 
ATOM     34  CD2 LEU A   6     -13.577  -8.755  18.368  0.00  0.00    +0.000 C 
ATOM     35  CD1 LEU A   6     -13.696  -7.099  16.491  0.00  0.00    +0.000 C 
ENDBRANCH  32  33
ENDBRANCH  10  32
ENDBRANCH   7  10
ENDBRANCH   5   6
ENDBRANCH   3   5
BRANCH   1  36
ATOM     36  CA  VAL A   4      -7.017 -11.427  14.637  0.00  0.00    +0.149 C 
BRANCH  36  38
ATOM     37  C   GLY A   3      -5.291 -12.700  13.479  0.00  0.00    +0.243 C 
ATOM     38  N   VAL A   4      -5.838 -12.287  14.619  0.00  0.00    -0.297 N 
ATOM     39  H   VAL A   4      -5.414 -12.585  15.521  0.00  0.00    +0.150 HD
ATOM     40  O   GLY A   3      -5.747 -12.410  12.374  0.00  0.00    -0.273 OA
BRANCH  37  41
ATOM     41  CA  GLY A   3      -4.059 -13.572  13.601  0.00  0.00    +0.176 C 
BRANCH  41  44
ATOM     42  C   LEU A   2      -4.181 -15.951  13.120  0.00  0.00    +0.241 C 
ATOM     43  O   LEU A   2      -4.303 -16.237  14.308  0.00  0.00    -0.273 OA
ATOM     44  N   GLY A   3      -4.075 -14.699  12.683  0.00  0.00    -0.295 N 
ATOM     45  H   GLY A   3      -4.002 -14.522  11.661  0.00  0.00    +0.150 HD
BRANCH  42  46
ATOM     46  CA  LEU A   2      -4.153 -17.054  12.074  0.00  0.00    +0.149 C 
BRANCH  46  48
ATOM     47  C   VAL A   1      -1.889 -17.916  11.703  0.00  0.00    +0.238 C 
ATOM     48  N   LEU A   2      -3.040 -17.948  12.366  0.00  0.00    -0.297 N 
ATOM     49  H   LEU A   2      -3.152 -18.645  13.130  0.00  0.00    +0.150 HD
ATOM     50  O   VAL A   1      -1.639 -17.098  10.822  0.00  0.00    -0.274 OA
BRANCH  47  51
ATOM     51  CA  VAL A   1      -0.875 -18.990  12.081  0.00  0.00    +0.145 C 
BRANCH  51  52
ATOM     52  CB  VAL A   1       0.391 -18.350  12.685  0.00  0.00    +0.025 C 
ATOM     53  CG2 VAL A   1       0.025 -17.346  13.771  0.00  0.00    +0.002 C 
ATOM     54  CG1 VAL A   1       1.309 -19.427  13.243  0.00  0.00    +0.002 C 
ENDBRANCH  51  52
BRANCH  51  55
ATOM     55  N   VAL A   1      -0.567 -19.772  10.893  0.00  0.00    -0.238 NA
ATOM     56  H   VAL A   1       0.077 -19.378  10.177  0.00  0.00    +0.142 HD
ENDBRANCH  51  55
ENDBRANCH  47  51
ENDBRANCH  46  48
BRANCH  46  57
ATOM     57  CB  LEU A   2      -5.457 -17.845  12.155  0.00  0.00    +0.029 C 
BRANCH  57  58
ATOM     58  CG  LEU A   2      -6.397 -17.973  10.960  0.00  0.00    +0.002 C 
ATOM     59  CD2 LEU A   2      -7.340 -19.148  11.199  0.00  0.00    +0.000 C 
ATOM     60  CD1 LEU A   2      -5.640 -18.125   9.643  0.00  0.00    +0.000 C 
ENDBRANCH  57  58
ENDBRANCH  46  57
ENDBRANCH  42  46
ENDBRANCH  41  44
ENDBRANCH  37  41
ENDBRANCH  36  38
BRANCH  36  61
ATOM     61  CB  VAL A   4      -8.259 -12.155  15.197  0.00  0.00    +0.027 C 
ATOM     62  CG2 VAL A   4      -9.425 -11.179  15.345  0.00  0.00    +0.002 C 
ATOM     63  CG1 VAL A   4      -8.645 -13.338  14.318  0.00  0.00    +0.002 C 
ENDBRANCH  36  61
ENDBRANCH   1  36
TORSDOF 25
REMARK  Name = ../refined-set-2016/3rux/3rux_pocket.pdb
REMARK  239 active torsions:
REMARK  status: ('A' for Active; 'I' for Inactive)
REMARK    1  A    between atoms: _1  and  _3
REMARK    2  A    between atoms: _3  and  _4
REMARK    3  A    between atoms: _3  and  _6
REMARK    4  A    between atoms: _6  and  _7
REMARK    5  A    between atoms: _10  and  _12
REMARK    6  A    between atoms: _12  and  _13
REMARK    7  A    between atoms: _15  and  _17
REMARK    8  A    between atoms: _17  and  _18
REMARK    9  A    between atoms: _17  and  _20
REMARK   10  A    between atoms: _20  and  _21
REMARK   11  A    between atoms: _23  and  _25
REMARK   12  A    between atoms: _25  and  _26
REMARK   13  A    between atoms: _25  and  _28
REMARK   14  A    between atoms: _28  and  _29
REMARK   15  A    between atoms: _32  and  _34
REMARK   16  A    between atoms: _34  and  _35
REMARK   17  A    between atoms: _34  and  _37
REMARK   18  A    between atoms: _37  and  _38
REMARK   19  A    between atoms: _43  and  _45
REMARK   20  A    between atoms: _45  and  _46
REMARK   21  A    between atoms: _49  and  _51
REMARK   22  A    between atoms: _51  and  _52
REMARK   23  A    between atoms: _51  and  _54
REMARK   24  A    between atoms: _54  and  _55
REMARK   25  A    between atoms: _58  and  _60
REMARK   26  A    between atoms: _60  and  _61
REMARK   27  A    between atoms: _60  and  _63
REMARK   28  A    between atoms: _63  and  _64
REMARK   29  A    between atoms: _67  and  _69
REMARK   30  A    between atoms: _69  and  _70
REMARK   31  A    between atoms: _69  and  _72
REMARK   32  A    between atoms: _72  and  _73
REMARK   33  A    between atoms: _76  and  _78
REMARK   34  A    between atoms: _78  and  _79
REMARK   35  A    between atoms: _78  and  _81
REMARK   36  A    between atoms: _81  and  _82
REMARK   37  A    between atoms: _85  and  _87
REMARK   38  A    between atoms: _87  and  _88
REMARK   39  A    between atoms: _91  and  _93
REMARK   40  A    between atoms: _93  and  _94
REMARK   41  A    between atoms: _93  and  _96
REMARK   42  A    between atoms: _96  and  _97
REMARK   43  A    between atoms: _97  and  _98
REMARK   44  A    between atoms: _103  and  _105
REMARK   45  A    between atoms: _105  and  _106
REMARK   46  A    between atoms: _105  and  _108
REMARK   47  A    between atoms: _108  and  _109
REMARK   48  A    between atoms: _112  and  _114
REMARK   49  A    between atoms: _114  and  _115
REMARK   50  A    between atoms: _118  and  _120
REMARK   51  A    between atoms: _120  and  _121
REMARK   52  A    between atoms: _123  and  _125
REMARK   53  A    between atoms: _125  and  _126
REMARK   54  A    between atoms: _125  and  _128
REMARK   55  A    between atoms: _128  and  _129
REMARK   56  A    between atoms: _129  and  _130
REMARK   57  A    between atoms: _130  and  _131
REMARK   58  A    between atoms: _140  and  _142
REMARK   59  A    between atoms: _142  and  _143
REMARK   60  A    between atoms: _145  and  _147
REMARK   61  A    between atoms: _147  and  _148
REMARK   62  A    between atoms: _147  and  _150
REMARK   63  A    between atoms: _150  and  _151
REMARK   64  A    between atoms: _151  and  _152
REMARK   65  A    between atoms: _152  and  _153
REMARK   66  A    between atoms: _162  and  _164
REMARK   67  A    between atoms: _164  and  _165
REMARK   68  A    between atoms: _164  and  _167
REMARK   69  A    between atoms: _167  and  _168
REMARK   70  A    between atoms: _173  and  _175
REMARK   71  A    between atoms: _175  and  _176
REMARK   72  A    between atoms: _178  and  _180
REMARK   73  A    between atoms: _180  and  _181
REMARK   74  A    between atoms: _180  and  _183
REMARK   75  A    between atoms: _183  and  _184
REMARK   76  A    between atoms: _184  and  _185
REMARK   77  A    between atoms: _185  and  _186
REMARK   78  A    between atoms: _195  and  _197
REMARK   79  A    between atoms: _197  and  _198
REMARK   80  A    between atoms: _200  and  _202
REMARK   81  A    between atoms: _202  and  _203
REMARK   82  A    between atoms: _202  and  _205
REMARK   83  A    between atoms: _205  and  _206
REMARK   84  A    between atoms: _216  and  _218
REMARK   85  A    between atoms: _218  and  _219
REMARK   86  A    between atoms: _222  and  _224
REMARK   87  A    between atoms: _224  and  _225
REMARK   88  A    between atoms: _228  and  _230
REMARK   89  A    between atoms: _230  and  _231
REMARK   90  A    between atoms: _230  and  _233
REMARK   91  A    between atoms: _233  and  _234
REMARK   92  A    between atoms: _237  and  _239
REMARK   93  A    between atoms: _239  and  _240
REMARK   94  A    between atoms: _239  and  _242
REMARK   95  A    between atoms: _242  and  _243
REMARK   96  A    between atoms: _243  and  _244
REMARK   97  A    between atoms: _249  and  _251
REMARK   98  A    between atoms: _251  and  _252
REMARK   99  A    between atoms: _251  and  _254
REMARK  100  A    between atoms: _254  and  _255
REMARK  101  A    between atoms: _258  and  _260
REMARK  102  A    between atoms: _260  and  _261
REMARK  103  A    between atoms: _260  and  _263
REMARK  104  A    between atoms: _263  and  _264
REMARK  105  A    between atoms: _267  and  _269
REMARK  106  A    between atoms: _269  and  _270
REMARK  107  A    between atoms: _269  and  _272
REMARK  108  A    between atoms: _272  and  _273
REMARK  109  A    between atoms: _276  and  _278
REMARK  110  A    between atoms: _278  and  _279
REMARK  111  A    between atoms: _278  and  _281
REMARK  112  A    between atoms: _281  and  _282
REMARK  113  A    between atoms: _284  and  _286
REMARK  114  A    between atoms: _286  and  _287
REMARK  115  A    between atoms: _286  and  _289
REMARK  116  A    between atoms: _292  and  _294
REMARK  117  A    between atoms: _294  and  _295
REMARK  118  A    between atoms: _294  and  _297
REMARK  119  A    between atoms: _297  and  _298
REMARK  120  A    between atoms: _298  and  _299
REMARK  121  A    between atoms: _299  and  _300
REMARK  122  A    between atoms: _300  and  _301
REMARK  123  A    between atoms: _305  and  _307
REMARK  124  A    between atoms: _307  and  _308
REMARK  125  A    between atoms: _307  and  _310
REMARK  126  A    between atoms: _310  and  _311
REMARK  127  A    between atoms: _322  and  _323
REMARK  128  A    between atoms: _328  and  _330
REMARK  129  A    between atoms: _330  and  _331
REMARK  130  A    between atoms: _330  and  _333
REMARK  131  A    between atoms: _333  and  _334
REMARK  132  A    between atoms: _339  and  _341
REMARK  133  A    between atoms: _341  and  _342
REMARK  134  A    between atoms: _341  and  _344
REMARK  135  A    between atoms: _344  and  _345
REMARK  136  A    between atoms: _348  and  _350
REMARK  137  A    between atoms: _350  and  _351
REMARK  138  A    between atoms: _350  and  _353
REMARK  139  A    between atoms: _356  and  _358
REMARK  140  A    between atoms: _358  and  _359
REMARK  141  A    between atoms: _361  and  _363
REMARK  142  A    between atoms: _363  and  _364
REMARK  143  A    between atoms: _363  and  _366
REMARK  144  A    between atoms: _366  and  _367
REMARK  145  A    between atoms: _367  and  _368
REMARK  146  A    between atoms: _368  and  _369
REMARK  147  A    between atoms: _369  and  _370
REMARK  148  A    between atoms: _374  and  _376
REMARK  149  A    between atoms: _376  and  _377
REMARK  150  A    between atoms: _376  and  _379
REMARK  151  A    between atoms: _379  and  _380
REMARK  152  A    between atoms: _383  and  _385
REMARK  153  A    between atoms: _385  and  _386
REMARK  154  A    between atoms: _389  and  _391
REMARK  155  A    between atoms: _391  and  _392
REMARK  156  A    between atoms: _394  and  _396
REMARK  157  A    between atoms: _396  and  _397
REMARK  158  A    between atoms: _396  and  _399
REMARK  159  A    between atoms: _399  and  _400
REMARK  160  A    between atoms: _403  and  _405
REMARK  161  A    between atoms: _405  and  _406
REMARK  162  A    between atoms: _405  and  _408
REMARK  163  A    between atoms: _408  and  _409
REMARK  164  A    between atoms: _412  and  _414
REMARK  165  A    between atoms: _414  and  _415
REMARK  166  A    between atoms: _418  and  _420
REMARK  167  A    between atoms: _420  and  _421
REMARK  168  A    between atoms: _420  and  _423
REMARK  169  A    between atoms: _423  and  _424
REMARK  170  A    between atoms: _424  and  _425
REMARK  171  A    between atoms: _428  and  _430
REMARK  172  A    between atoms: _430  and  _431
REMARK  173  A    between atoms: _430  and  _433
REMARK  174  A    between atoms: _436  and  _438
REMARK  175  A    between atoms: _438  and  _439
REMARK  176  A    between atoms: _438  and  _441
REMARK  177  A    between atoms: _441  and  _442
REMARK  178  A    between atoms: _445  and  _447
REMARK  179  A    between atoms: _447  and  _448
REMARK  180  A    between atoms: _450  and  _452
REMARK  181  A    between atoms: _452  and  _453
REMARK  182  A    between atoms: _452  and  _455
REMARK  183  A    between atoms: _458  and  _460
REMARK  184  A    between atoms: _460  and  _461
REMARK  185  A    between atoms: _463  and  _465
REMARK  186  A    between atoms: _465  and  _466
REMARK  187  A    between atoms: _465  and  _468
REMARK  188  A    between atoms: _468  and  _469
REMARK  189  A    between atoms: _472  and  _474
REMARK  190  A    between atoms: _474  and  _475
REMARK  191  A    between atoms: _474  and  _477
REMARK  192  A    between atoms: _477  and  _478
REMARK  193  A    between atoms: _483  and  _485
REMARK  194  A    between atoms: _485  and  _486
REMARK  195  A    between atoms: _485  and  _488
REMARK  196  A    between atoms: _491  and  _493
REMARK  197  A    between atoms: _493  and  _494
REMARK  198  A    between atoms: _493  and  _496
REMARK  199  A    between atoms: _496  and  _497
REMARK  200  A    between atoms: _497  and  _498
REMARK  201  A    between atoms: _503  and  _505
REMARK  202  A    between atoms: _505  and  _506
REMARK  203  A    between atoms: _510  and  _511
REMARK  204  A    between atoms: _516  and  _518
REMARK  205  A    between atoms: _518  and  _519
REMARK  206  A    between atoms: _518  and  _521
REMARK  207  A    between atoms: _521  and  _522
REMARK  208  A    between atoms: _522  and  _523
REMARK  209  A    between atoms: _526  and  _528
REMARK  210  A    between atoms: _528  and  _529
REMARK  211  A    between atoms: _528  and  _531
REMARK  212  A    between atoms: _534  and  _536
REMARK  213  A    between atoms: _536  and  _537
REMARK  214  A    between atoms: _536  and  _539
REMARK  215  A    between atoms: _539  and  _540
REMARK  216  A    between atoms: _544  and  _545
REMARK  217  A    between atoms: _550  and  _552
REMARK  218  A    between atoms: _552  and  _553
REMARK  219  A    between atoms: _552  and  _555
REMARK  220  A    between atoms: _555  and  _556
REMARK  221  A    between atoms: _559  and  _561
REMARK  222  A    between atoms: _561  and  _562
REMARK  223  A    between atoms: _565  and  _567
REMARK  224  A    between atoms: _567  and  _568
REMARK  225  A    between atoms: _567  and  _570
REMARK  226  A    between atoms: _570  and  _571
REMARK  227  A    between atoms: _574  and  _576
REMARK  228  A    between atoms: _576  and  _577
REMARK  229  A    between atoms: _576  and  _579
REMARK  230  A    between atoms: _579  and  _580
REMARK  231  A    between atoms: _582  and  _584
REMARK  232  A    between atoms: _584  and  _585
REMARK  233  A    between atoms: _587  and  _589
REMARK  234  A    between atoms: _589  and  _590
REMARK  235  A    between atoms: _589  and  _592
REMARK  236  A    between atoms: _592  and  _593
REMARK  237  A    between atoms: _596  and  _598
REMARK  238  A    between atoms: _598  and  _599
REMARK  239  A    between atoms: _598  and  _601
REMARK                            x       y       z     vdW  Elec       q    Type
REMARK                         _______ _______ _______ _____ _____    ______ ____
ROOT
ATOM      1  C   GLN A   1     -10.807   2.222  19.700  0.00  0.00    +0.238 C 
ATOM      2  N   ALA A   2     -10.376   3.440  20.014  0.00  0.00    -0.297 N 
ATOM      3  H   ALA A   2      -9.694   3.557  20.790  0.00  0.00    +0.150 HD
ATOM      4  O   GLN A   1     -11.628   2.013  18.808  0.00  0.00    -0.274 OA
ENDROOT
BRANCH   2   5
ATOM      5  CA  ALA A   2     -10.845   4.616  19.286  0.00  0.00    +0.149 C 
ATOM      6  CB  ALA A   2     -10.739   5.862  20.165  0.00  0.00    +0.031 C 
BRANCH   5   7
ATOM      7  C   ALA A   2     -10.051   4.805  17.996  0.00  0.00    +0.244 C 
ATOM      8  O   ALA A   2      -8.839   4.594  17.975  0.00  0.00    -0.273 OA
ATOM      9  N   PRO A   3     -10.737   5.183  16.907  0.00  0.00    -0.273 N 
ATOM     10  CD  PRO A   3     -12.196   5.329  16.758  0.00  0.00    +0.094 C 
ATOM     11  CG  PRO A   3     -12.378   5.455  15.266  0.00  0.00    +0.024 C 
ATOM     12  CB  PRO A   3     -11.109   6.046  14.761  0.00  0.00    +0.030 C 
ATOM     13  CA  PRO A   3     -10.032   5.420  15.647  0.00  0.00    +0.140 C 
BRANCH  13  14
ATOM     14  C   PRO A   3      -8.866   6.382  15.843  0.00  0.00    +0.227 C 
ATOM     15  O   PRO A   3      -7.818   6.197  15.227  0.00  0.00    -0.286 OA
ENDBRANCH  13  14
ENDBRANCH   5   7
ENDBRANCH   2   5
BRANCH   1  16
ATOM     16  CA  GLN A   1     -10.230   1.062  20.507  0.00  0.00    +0.145 C 
BRANCH  16  17
ATOM     17  N   GLN A   1     -11.290   0.287  21.139  0.00  0.00    -0.238 NA
ATOM     18  H   GLN A   1     -11.402  -0.716  20.887  0.00  0.00    +0.142 HD
ENDBRANCH  16  17
BRANCH  16  19
ATOM     19  CB  GLN A   1      -9.395   0.163  19.591  0.00  0.00    +0.036 C 
BRANCH  19  20
ATOM     20  CG  GLN A   1      -8.087   0.789  19.133  0.00  0.00    +0.087 C 
BRANCH  20  21
ATOM     21  CD  GLN A   1      -6.978   0.627  20.153  0.00  0.00    +0.219 C 
ATOM     22  NE2 GLN A   1      -6.800   1.631  21.006  0.00  0.00    -0.329 N 
ATOM     23 HE21 GLN A   1      -6.054   1.574  21.728  0.00  0.00    +0.145 HD
ATOM     24 HE22 GLN A   1      -7.407   2.474  20.951  0.00  0.00    +0.145 HD
ATOM     25  OE1 GLN A   1      -6.287  -0.392  20.175  0.00  0.00    -0.275 OA
ENDBRANCH  20  21
ENDBRANCH  19  20
ENDBRANCH  16  19
ENDBRANCH   1  16
TORSDOF 8
REMARK  Name = ../refined-set-2016/3rux/3rux_pocket.pdb
REMARK  239 active torsions:
REMARK  status: ('A' for Active; 'I' for Inactive)
REMARK    1  A    between atoms: _1  and  _3
REMARK    2  A    between atoms: _3  and  _4
REMARK    3  A    between atoms: _3  and  _6
REMARK    4  A    between atoms: _6  and  _7
REMARK    5  A    between atoms: _10  and  _12
REMARK    6  A    between atoms: _12  and  _13
REMARK    7  A    between atoms: _15  and  _17
REMARK    8  A    between atoms: _17  and  _18
REMARK    9  A    between atoms: _17  and  _20
REMARK   10  A    between atoms: _20  and  _21
REMARK   11  A    between atoms: _23  and  _25
REMARK   12  A    between atoms: _25  and  _26
REMARK   13  A    between atoms: _25  and  _28
REMARK   14  A    between atoms: _28  and  _29
REMARK   15  A    between atoms: _32  and  _34
REMARK   16  A    between atoms: _34  and  _35
REMARK   17  A    between atoms: _34  and  _37
REMARK   18  A    between atoms: _37  and  _38
REMARK   19  A    between atoms: _43  and  _45
REMARK   20  A    between atoms: _45  and  _46
REMARK   21  A    between atoms: _49  and  _51
REMARK   22  A    between atoms: _51  and  _52
REMARK   23  A    between atoms: _51  and  _54
REMARK   24  A    between atoms: _54  and  _55
REMARK   25  A    between atoms: _58  and  _60
REMARK   26  A    between atoms: _60  and  _61
REMARK   27  A    between atoms: _60  and  _63
REMARK   28  A    between atoms: _63  and  _64
REMARK   29  A    between atoms: _67  and  _69
REMARK   30  A    between atoms: _69  and  _70
REMARK   31  A    between atoms: _69  and  _72
REMARK   32  A    between atoms: _72  and  _73
REMARK   33  A    between atoms: _76  and  _78
REMARK   34  A    between atoms: _78  and  _79
REMARK   35  A    between atoms: _78  and  _81
REMARK   36  A    between atoms: _81  and  _82
REMARK   37  A    between atoms: _85  and  _87
REMARK   38  A    between atoms: _87  and  _88
REMARK   39  A    between atoms: _91  and  _93
REMARK   40  A    between atoms: _93  and  _94
REMARK   41  A    between atoms: _93  and  _96
REMARK   42  A    between atoms: _96  and  _97
REMARK   43  A    between atoms: _97  and  _98
REMARK   44  A    between atoms: _103  and  _105
REMARK   45  A    between atoms: _105  and  _106
REMARK   46  A    between atoms: _105  and  _108
REMARK   47  A    between atoms: _108  and  _109
REMARK   48  A    between atoms: _112  and  _114
REMARK   49  A    between atoms: _114  and  _115
REMARK   50  A    between atoms: _118  and  _120
REMARK   51  A    between atoms: _120  and  _121
REMARK   52  A    between atoms: _123  and  _125
REMARK   53  A    between atoms: _125  and  _126
REMARK   54  A    between atoms: _125  and  _128
REMARK   55  A    between atoms: _128  and  _129
REMARK   56  A    between atoms: _129  and  _130
REMARK   57  A    between atoms: _130  and  _131
REMARK   58  A    between atoms: _140  and  _142
REMARK   59  A    between atoms: _142  and  _143
REMARK   60  A    between atoms: _145  and  _147
REMARK   61  A    between atoms: _147  and  _148
REMARK   62  A    between atoms: _147  and  _150
REMARK   63  A    between atoms: _150  and  _151
REMARK   64  A    between atoms: _151  and  _152
REMARK   65  A    between atoms: _152  and  _153
REMARK   66  A    between atoms: _162  and  _164
REMARK   67  A    between atoms: _164  and  _165
REMARK   68  A    between atoms: _164  and  _167
REMARK   69  A    between atoms: _167  and  _168
REMARK   70  A    between atoms: _173  and  _175
REMARK   71  A    between atoms: _175  and  _176
REMARK   72  A    between atoms: _178  and  _180
REMARK   73  A    between atoms: _180  and  _181
REMARK   74  A    between atoms: _180  and  _183
REMARK   75  A    between atoms: _183  and  _184
REMARK   76  A    between atoms: _184  and  _185
REMARK   77  A    between atoms: _185  and  _186
REMARK   78  A    between atoms: _195  and  _197
REMARK   79  A    between atoms: _197  and  _198
REMARK   80  A    between atoms: _200  and  _202
REMARK   81  A    between atoms: _202  and  _203
REMARK   82  A    between atoms: _202  and  _205
REMARK   83  A    between atoms: _205  and  _206
REMARK   84  A    between atoms: _216  and  _218
REMARK   85  A    between atoms: _218  and  _219
REMARK   86  A    between atoms: _222  and  _224
REMARK   87  A    between atoms: _224  and  _225
REMARK   88  A    between atoms: _228  and  _230
REMARK   89  A    between atoms: _230  and  _231
REMARK   90  A    between atoms: _230  and  _233
REMARK   91  A    between atoms: _233  and  _234
REMARK   92  A    between atoms: _237  and  _239
REMARK   93  A    between atoms: _239  and  _240
REMARK   94  A    between atoms: _239  and  _242
REMARK   95  A    between atoms: _242  and  _243
REMARK   96  A    between atoms: _243  and  _244
REMARK   97  A    between atoms: _249  and  _251
REMARK   98  A    between atoms: _251  and  _252
REMARK   99  A    between atoms: _251  and  _254
REMARK  100  A    between atoms: _254  and  _255
REMARK  101  A    between atoms: _258  and  _260
REMARK  102  A    between atoms: _260  and  _261
REMARK  103  A    between atoms: _260  and  _263
REMARK  104  A    between atoms: _263  and  _264
REMARK  105  A    between atoms: _267  and  _269
REMARK  106  A    between atoms: _269  and  _270
REMARK  107  A    between atoms: _269  and  _272
REMARK  108  A    between atoms: _272  and  _273
REMARK  109  A    between atoms: _276  and  _278
REMARK  110  A    between atoms: _278  and  _279
REMARK  111  A    between atoms: _278  and  _281
REMARK  112  A    between atoms: _281  and  _282
REMARK  113  A    between atoms: _284  and  _286
REMARK  114  A    between atoms: _286  and  _287
REMARK  115  A    between atoms: _286  and  _289
REMARK  116  A    between atoms: _292  and  _294
REMARK  117  A    between atoms: _294  and  _295
REMARK  118  A    between atoms: _294  and  _297
REMARK  119  A    between atoms: _297  and  _298
REMARK  120  A    between atoms: _298  and  _299
REMARK  121  A    between atoms: _299  and  _300
REMARK  122  A    between atoms: _300  and  _301
REMARK  123  A    between atoms: _305  and  _307
REMARK  124  A    between atoms: _307  and  _308
REMARK  125  A    between atoms: _307  and  _310
REMARK  126  A    between atoms: _310  and  _311
REMARK  127  A    between atoms: _322  and  _323
REMARK  128  A    between atoms: _328  and  _330
REMARK  129  A    between atoms: _330  and  _331
REMARK  130  A    between atoms: _330  and  _333
REMARK  131  A    between atoms: _333  and  _334
REMARK  132  A    between atoms: _339  and  _341
REMARK  133  A    between atoms: _341  and  _342
REMARK  134  A    between atoms: _341  and  _344
REMARK  135  A    between atoms: _344  and  _345
REMARK  136  A    between atoms: _348  and  _350
REMARK  137  A    between atoms: _350  and  _351
REMARK  138  A    between atoms: _350  and  _353
REMARK  139  A    between atoms: _356  and  _358
REMARK  140  A    between atoms: _358  and  _359
REMARK  141  A    between atoms: _361  and  _363
REMARK  142  A    between atoms: _363  and  _364
REMARK  143  A    between atoms: _363  and  _366
REMARK  144  A    between atoms: _366  and  _367
REMARK  145  A    between atoms: _367  and  _368
REMARK  146  A    between atoms: _368  and  _369
REMARK  147  A    between atoms: _369  and  _370
REMARK  148  A    between atoms: _374  and  _376
REMARK  149  A    between atoms: _376  and  _377
REMARK  150  A    between atoms: _376  and  _379
REMARK  151  A    between atoms: _379  and  _380
REMARK  152  A    between atoms: _383  and  _385
REMARK  153  A    between atoms: _385  and  _386
REMARK  154  A    between atoms: _389  and  _391
REMARK  155  A    between atoms: _391  and  _392
REMARK  156  A    between atoms: _394  and  _396
REMARK  157  A    between atoms: _396  and  _397
REMARK  158  A    between atoms: _396  and  _399
REMARK  159  A    between atoms: _399  and  _400
REMARK  160  A    between atoms: _403  and  _405
REMARK  161  A    between atoms: _405  and  _406
REMARK  162  A    between atoms: _405  and  _408
REMARK  163  A    between atoms: _408  and  _409
REMARK  164  A    between atoms: _412  and  _414
REMARK  165  A    between atoms: _414  and  _415
REMARK  166  A    between atoms: _418  and  _420
REMARK  167  A    between atoms: _420  and  _421
REMARK  168  A    between atoms: _420  and  _423
REMARK  169  A    between atoms: _423  and  _424
REMARK  170  A    between atoms: _424  and  _425
REMARK  171  A    between atoms: _428  and  _430
REMARK  172  A    between atoms: _430  and  _431
REMARK  173  A    between atoms: _430  and  _433
REMARK  174  A    between atoms: _436  and  _438
REMARK  175  A    between atoms: _438  and  _439
REMARK  176  A    between atoms: _438  and  _441
REMARK  177  A    between atoms: _441  and  _442
REMARK  178  A    between atoms: _445  and  _447
REMARK  179  A    between atoms: _447  and  _448
REMARK  180  A    between atoms: _450  and  _452
REMARK  181  A    between atoms: _452  and  _453
REMARK  182  A    between atoms: _452  and  _455
REMARK  183  A    between atoms: _458  and  _460
REMARK  184  A    between atoms: _460  and  _461
REMARK  185  A    between atoms: _463  and  _465
REMARK  186  A    between atoms: _465  and  _466
REMARK  187  A    between atoms: _465  and  _468
REMARK  188  A    between atoms: _468  and  _469
REMARK  189  A    between atoms: _472  and  _474
REMARK  190  A    between atoms: _474  and  _475
REMARK  191  A    between atoms: _474  and  _477
REMARK  192  A    between atoms: _477  and  _478
REMARK  193  A    between atoms: _483  and  _485
REMARK  194  A    between atoms: _485  and  _486
REMARK  195  A    between atoms: _485  and  _488
REMARK  196  A    between atoms: _491  and  _493
REMARK  197  A    between atoms: _493  and  _494
REMARK  198  A    between atoms: _493  and  _496
REMARK  199  A    between atoms: _496  and  _497
REMARK  200  A    between atoms: _497  and  _498
REMARK  201  A    between atoms: _503  and  _505
REMARK  202  A    between atoms: _505  and  _506
REMARK  203  A    between atoms: _510  and  _511
REMARK  204  A    between atoms: _516  and  _518
REMARK  205  A    between atoms: _518  and  _519
REMARK  206  A    between atoms: _518  and  _521
REMARK  207  A    between atoms: _521  and  _522
REMARK  208  A    between atoms: _522  and  _523
REMARK  209  A    between atoms: _526  and  _528
REMARK  210  A    between atoms: _528  and  _529
REMARK  211  A    between atoms: _528  and  _531
REMARK  212  A    between atoms: _534  and  _536
REMARK  213  A    between atoms: _536  and  _537
REMARK  214  A    between atoms: _536  and  _539
REMARK  215  A    between atoms: _539  and  _540
REMARK  216  A    between atoms: _544  and  _545
REMARK  217  A    between atoms: _550  and  _552
REMARK  218  A    between atoms: _552  and  _553
REMARK  219  A    between atoms: _552  and  _555
REMARK  220  A    between atoms: _555  and  _556
REMARK  221  A    between atoms: _559  and  _561
REMARK  222  A    between atoms: _561  and  _562
REMARK  223  A    between atoms: _565  and  _567
REMARK  224  A    between atoms: _567  and  _568
REMARK  225  A    between atoms: _567  and  _570
REMARK  226  A    between atoms: _570  and  _571
REMARK  227  A    between atoms: _574  and  _576
REMARK  228  A    between atoms: _576  and  _577
REMARK  229  A    between atoms: _576  and  _579
REMARK  230  A    between atoms: _579  and  _580
REMARK  231  A    between atoms: _582  and  _584
REMARK  232  A    between atoms: _584  and  _585
REMARK  233  A    between atoms: _587  and  _589
REMARK  234  A    between atoms: _589  and  _590
REMARK  235  A    between atoms: _589  and  _592
REMARK  236  A    between atoms: _592  and  _593
REMARK  237  A    between atoms: _596  and  _598
REMARK  238  A    between atoms: _598  and  _599
REMARK  239  A    between atoms: _598  and  _601
REMARK                            x       y       z     vdW  Elec       q    Type
REMARK                         _______ _______ _______ _____ _____    ______ ____
ROOT
ATOM      1  C   PRO A   4      -9.813   6.239  10.021  0.00  0.00    +0.241 C 
ATOM      2  O   PRO A   4     -10.948   6.714  10.027  0.00  0.00    -0.273 OA
ATOM      3  N   ASP A   5      -9.525   5.060   9.483  0.00  0.00    -0.297 N 
ATOM      4  H   ASP A   5      -8.551   4.698   9.536  0.00  0.00    +0.150 HD
ENDROOT
BRANCH   1   8
ATOM      5  C   ASP A   3      -7.540   5.254  11.926  0.00  0.00    +0.244 C 
ATOM      6  O   ASP A   3      -8.580   4.949  12.506  0.00  0.00    -0.273 OA
ATOM      7  N   PRO A   4      -7.492   6.211  10.985  0.00  0.00    -0.272 N 
ATOM      8  CA  PRO A   4      -8.671   7.025  10.664  0.00  0.00    +0.152 C 
ATOM      9  CB  PRO A   4      -8.124   8.070   9.681  0.00  0.00    +0.031 C 
ATOM     10  CG  PRO A   4      -6.872   7.468   9.134  0.00  0.00    +0.024 C 
ATOM     11  CD  PRO A   4      -6.295   6.663  10.256  0.00  0.00    +0.094 C 
BRANCH   5  12
ATOM     12  CA  ASP A   3      -6.231   4.545  12.262  0.00  0.00    +0.160 C 
BRANCH  12  14
ATOM     13  C   VAL A   2      -4.963   3.882  14.235  0.00  0.00    +0.241 C 
ATOM     14  N   ASP A   3      -6.084   4.371  13.707  0.00  0.00    -0.297 N 
ATOM     15  H   ASP A   3      -6.870   4.634  14.335  0.00  0.00    +0.150 HD
ATOM     16  O   VAL A   2      -3.959   3.647  13.562  0.00  0.00    -0.273 OA
BRANCH  13  17
ATOM     17  CA  VAL A   2      -4.960   3.591  15.737  0.00  0.00    +0.148 C 
BRANCH  17  20
ATOM     18  C   GLU A   1      -4.947   4.978  17.724  0.00  0.00    +0.238 C 
ATOM     19  O   GLU A   1      -3.788   4.652  17.979  0.00  0.00    -0.274 OA
ATOM     20  N   VAL A   2      -5.566   4.598  16.609  0.00  0.00    -0.297 N 
ATOM     21  H   VAL A   2      -6.483   5.018  16.356  0.00  0.00    +0.150 HD
BRANCH  18  22
ATOM     22  CA  GLU A   1      -5.735   5.846  18.705  0.00  0.00    +0.145 C 
BRANCH  22  23
ATOM     23  N   GLU A   1      -6.857   6.545  18.085  0.00  0.00    -0.238 NA
ATOM     24  H   GLU A   1      -7.795   6.096  18.091  0.00  0.00    +0.142 HD
ENDBRANCH  22  23
BRANCH  22  25
ATOM     25  CB  GLU A   1      -6.226   4.968  19.861  0.00  0.00    +0.038 C 
BRANCH  25  26
ATOM     26  CG  GLU A   1      -6.638   5.721  21.116  0.00  0.00    +0.116 C 
BRANCH  26  27
ATOM     27  CD  GLU A   1      -7.311   4.819  22.131  0.00  0.00    +0.365 C 
ATOM     28  OE2 GLU A   1      -6.908   4.836  23.314  0.00  0.00    -0.246 OA
ATOM     29  OE1 GLU A   1      -8.243   4.084  21.746  0.00  0.00    -0.246 OA
ENDBRANCH  26  27
ENDBRANCH  25  26
ENDBRANCH  22  25
ENDBRANCH  18  22
ENDBRANCH  17  20
BRANCH  17  30
ATOM     30  CB  VAL A   2      -5.592   2.199  15.970  0.00  0.00    +0.027 C 
ATOM     31  CG2 VAL A   2      -5.225   1.678  17.353  0.00  0.00    +0.002 C 
ATOM     32  CG1 VAL A   2      -7.103   2.260  15.797  0.00  0.00    +0.002 C 
ENDBRANCH  17  30
ENDBRANCH  13  17
ENDBRANCH  12  14
BRANCH  12  33
ATOM     33  CB  ASP A   3      -6.179   3.183  11.561  0.00  0.00    +0.143 C 
BRANCH  33  34
ATOM     34  CG  ASP A   3      -6.082   3.304  10.055  0.00  0.00    +0.367 C 
ATOM     35  OD2 ASP A   3      -4.948   3.407   9.538  0.00  0.00    -0.246 OA
ATOM     36  OD1 ASP A   3      -7.136   3.292   9.382  0.00  0.00    -0.246 OA
ENDBRANCH  33  34
ENDBRANCH  12  33
ENDBRANCH   5  12
ENDBRANCH   1   8
BRANCH   3  37
ATOM     37  CA  ASP A   5     -10.551   4.263   8.818  0.00  0.00    +0.160 C 
BRANCH  37  38
ATOM     38  C   ASP A   5     -11.066   3.132   9.700  0.00  0.00    +0.241 C 
ATOM     39  N   ALA A   6     -10.615   3.110  10.949  0.00  0.00    -0.297 N 
ATOM     40  H   ALA A   6      -9.955   3.849  11.263  0.00  0.00    +0.150 HD
ATOM     41  O   ASP A   5     -11.859   2.300   9.255  0.00  0.00    -0.273 OA
BRANCH  39  42
ATOM     42  CA  ALA A   6     -11.023   2.075  11.889  0.00  0.00    +0.149 C 
ATOM     43  CB  ALA A   6      -9.944   1.875  12.950  0.00  0.00    +0.031 C 
BRANCH  42  44
ATOM     44  C   ALA A   6     -12.353   2.406  12.554  0.00  0.00    +0.241 C 
ATOM     45  N   THR A   7     -12.983   1.383  13.116  0.00  0.00    -0.295 N 
ATOM     46  H   THR A   7     -12.674   0.416  12.892  0.00  0.00    +0.150 HD
ATOM     47  O   ALA A   6     -12.809   3.551  12.538  0.00  0.00    -0.273 OA
BRANCH  45  48
ATOM     48  CA  THR A   7     -14.094   1.574  14.036  0.00  0.00    +0.176 C 
BRANCH  48  49
ATOM     49  C   THR A   7     -13.962   0.534  15.139  0.00  0.00    +0.243 C 
ATOM     50  N   SER A   8     -14.878   0.560  16.102  0.00  0.00    -0.296 N 
ATOM     51  H   SER A   8     -15.625   1.283  16.071  0.00  0.00    +0.150 HD
ATOM     52  O   THR A   7     -13.034  -0.270  15.121  0.00  0.00    -0.273 OA
BRANCH  50  53
ATOM     53  CA  SER A   8     -14.863  -0.398  17.199  0.00  0.00    +0.166 C 
BRANCH  53  54
ATOM     54  CB  SER A   8     -16.288  -0.666  17.646  0.00  0.00    +0.229 C 
ATOM     55  OG  SER A   8     -17.213   0.050  17.263  0.00  0.00    -0.286 OA
ENDBRANCH  53  54
BRANCH  53  56
ATOM     56  C   SER A   8     -14.048   0.137  18.379  0.00  0.00    +0.165 C 
BRANCH  56  57
ATOM     57  O   SER A   8     -14.775   1.138  19.084  0.00  0.00    -0.380 OA
ATOM     58  H   SER A   8     -14.980   1.888  18.471  0.00  0.00    +0.211 HD
ENDBRANCH  56  57
ENDBRANCH  53  56
ENDBRANCH  50  53
ENDBRANCH  48  49
BRANCH  48  59
ATOM     59  CB  THR A   7     -15.464   1.449  13.341  0.00  0.00    +0.137 C 
ATOM     60  CG2 THR A   7     -15.713   0.017  12.896  0.00  0.00    +0.034 C 
BRANCH  59  61
ATOM     61  OG1 THR A   7     -16.500   1.863  14.246  0.00  0.00    -0.382 OA
ATOM     62  HG1 THR A   7     -17.379   1.782  13.798  0.00  0.00    +0.210 HD
ENDBRANCH  59  61
ENDBRANCH  48  59
ENDBRANCH  45  48
ENDBRANCH  42  44
ENDBRANCH  39  42
ENDBRANCH  37  38
BRANCH  37  63
ATOM     63  CB  ASP A   5     -10.021   3.702   7.499  0.00  0.00    +0.143 C 
BRANCH  63  64
ATOM     64  CG  ASP A   5      -9.800   4.779   6.463  0.00  0.00    +0.367 C 
ATOM     65  OD2 ASP A   5     -10.667   5.671   6.343  0.00  0.00    -0.246 OA
ATOM     66  OD1 ASP A   5      -8.759   4.740   5.777  0.00  0.00    -0.246 OA
ENDBRANCH  63  64
ENDBRANCH  37  63
ENDBRANCH   3  37
TORSDOF 27
REMARK  Name = ../refined-set-2016/3rux/3rux_pocket.pdb
REMARK  239 active torsions:
REMARK  status: ('A' for Active; 'I' for Inactive)
REMARK    1  A    between atoms: _1  and  _3
REMARK    2  A    between atoms: _3  and  _4
REMARK    3  A    between atoms: _3  and  _6
REMARK    4  A    between atoms: _6  and  _7
REMARK    5  A    between atoms: _10  and  _12
REMARK    6  A    between atoms: _12  and  _13
REMARK    7  A    between atoms: _15  and  _17
REMARK    8  A    between atoms: _17  and  _18
REMARK    9  A    between atoms: _17  and  _20
REMARK   10  A    between atoms: _20  and  _21
REMARK   11  A    between atoms: _23  and  _25
REMARK   12  A    between atoms: _25  and  _26
REMARK   13  A    between atoms: _25  and  _28
REMARK   14  A    between atoms: _28  and  _29
REMARK   15  A    between atoms: _32  and  _34
REMARK   16  A    between atoms: _34  and  _35
REMARK   17  A    between atoms: _34  and  _37
REMARK   18  A    between atoms: _37  and  _38
REMARK   19  A    between atoms: _43  and  _45
REMARK   20  A    between atoms: _45  and  _46
REMARK   21  A    between atoms: _49  and  _51
REMARK   22  A    between atoms: _51  and  _52
REMARK   23  A    between atoms: _51  and  _54
REMARK   24  A    between atoms: _54  and  _55
REMARK   25  A    between atoms: _58  and  _60
REMARK   26  A    between atoms: _60  and  _61
REMARK   27  A    between atoms: _60  and  _63
REMARK   28  A    between atoms: _63  and  _64
REMARK   29  A    between atoms: _67  and  _69
REMARK   30  A    between atoms: _69  and  _70
REMARK   31  A    between atoms: _69  and  _72
REMARK   32  A    between atoms: _72  and  _73
REMARK   33  A    between atoms: _76  and  _78
REMARK   34  A    between atoms: _78  and  _79
REMARK   35  A    between atoms: _78  and  _81
REMARK   36  A    between atoms: _81  and  _82
REMARK   37  A    between atoms: _85  and  _87
REMARK   38  A    between atoms: _87  and  _88
REMARK   39  A    between atoms: _91  and  _93
REMARK   40  A    between atoms: _93  and  _94
REMARK   41  A    between atoms: _93  and  _96
REMARK   42  A    between atoms: _96  and  _97
REMARK   43  A    between atoms: _97  and  _98
REMARK   44  A    between atoms: _103  and  _105
REMARK   45  A    between atoms: _105  and  _106
REMARK   46  A    between atoms: _105  and  _108
REMARK   47  A    between atoms: _108  and  _109
REMARK   48  A    between atoms: _112  and  _114
REMARK   49  A    between atoms: _114  and  _115
REMARK   50  A    between atoms: _118  and  _120
REMARK   51  A    between atoms: _120  and  _121
REMARK   52  A    between atoms: _123  and  _125
REMARK   53  A    between atoms: _125  and  _126
REMARK   54  A    between atoms: _125  and  _128
REMARK   55  A    between atoms: _128  and  _129
REMARK   56  A    between atoms: _129  and  _130
REMARK   57  A    between atoms: _130  and  _131
REMARK   58  A    between atoms: _140  and  _142
REMARK   59  A    between atoms: _142  and  _143
REMARK   60  A    between atoms: _145  and  _147
REMARK   61  A    between atoms: _147  and  _148
REMARK   62  A    between atoms: _147  and  _150
REMARK   63  A    between atoms: _150  and  _151
REMARK   64  A    between atoms: _151  and  _152
REMARK   65  A    between atoms: _152  and  _153
REMARK   66  A    between atoms: _162  and  _164
REMARK   67  A    between atoms: _164  and  _165
REMARK   68  A    between atoms: _164  and  _167
REMARK   69  A    between atoms: _167  and  _168
REMARK   70  A    between atoms: _173  and  _175
REMARK   71  A    between atoms: _175  and  _176
REMARK   72  A    between atoms: _178  and  _180
REMARK   73  A    between atoms: _180  and  _181
REMARK   74  A    between atoms: _180  and  _183
REMARK   75  A    between atoms: _183  and  _184
REMARK   76  A    between atoms: _184  and  _185
REMARK   77  A    between atoms: _185  and  _186
REMARK   78  A    between atoms: _195  and  _197
REMARK   79  A    between atoms: _197  and  _198
REMARK   80  A    between atoms: _200  and  _202
REMARK   81  A    between atoms: _202  and  _203
REMARK   82  A    between atoms: _202  and  _205
REMARK   83  A    between atoms: _205  and  _206
REMARK   84  A    between atoms: _216  and  _218
REMARK   85  A    between atoms: _218  and  _219
REMARK   86  A    between atoms: _222  and  _224
REMARK   87  A    between atoms: _224  and  _225
REMARK   88  A    between atoms: _228  and  _230
REMARK   89  A    between atoms: _230  and  _231
REMARK   90  A    between atoms: _230  and  _233
REMARK   91  A    between atoms: _233  and  _234
REMARK   92  A    between atoms: _237  and  _239
REMARK   93  A    between atoms: _239  and  _240
REMARK   94  A    between atoms: _239  and  _242
REMARK   95  A    between atoms: _242  and  _243
REMARK   96  A    between atoms: _243  and  _244
REMARK   97  A    between atoms: _249  and  _251
REMARK   98  A    between atoms: _251  and  _252
REMARK   99  A    between atoms: _251  and  _254
REMARK  100  A    between atoms: _254  and  _255
REMARK  101  A    between atoms: _258  and  _260
REMARK  102  A    between atoms: _260  and  _261
REMARK  103  A    between atoms: _260  and  _263
REMARK  104  A    between atoms: _263  and  _264
REMARK  105  A    between atoms: _267  and  _269
REMARK  106  A    between atoms: _269  and  _270
REMARK  107  A    between atoms: _269  and  _272
REMARK  108  A    between atoms: _272  and  _273
REMARK  109  A    between atoms: _276  and  _278
REMARK  110  A    between atoms: _278  and  _279
REMARK  111  A    between atoms: _278  and  _281
REMARK  112  A    between atoms: _281  and  _282
REMARK  113  A    between atoms: _284  and  _286
REMARK  114  A    between atoms: _286  and  _287
REMARK  115  A    between atoms: _286  and  _289
REMARK  116  A    between atoms: _292  and  _294
REMARK  117  A    between atoms: _294  and  _295
REMARK  118  A    between atoms: _294  and  _297
REMARK  119  A    between atoms: _297  and  _298
REMARK  120  A    between atoms: _298  and  _299
REMARK  121  A    between atoms: _299  and  _300
REMARK  122  A    between atoms: _300  and  _301
REMARK  123  A    between atoms: _305  and  _307
REMARK  124  A    between atoms: _307  and  _308
REMARK  125  A    between atoms: _307  and  _310
REMARK  126  A    between atoms: _310  and  _311
REMARK  127  A    between atoms: _322  and  _323
REMARK  128  A    between atoms: _328  and  _330
REMARK  129  A    between atoms: _330  and  _331
REMARK  130  A    between atoms: _330  and  _333
REMARK  131  A    between atoms: _333  and  _334
REMARK  132  A    between atoms: _339  and  _341
REMARK  133  A    between atoms: _341  and  _342
REMARK  134  A    between atoms: _341  and  _344
REMARK  135  A    between atoms: _344  and  _345
REMARK  136  A    between atoms: _348  and  _350
REMARK  137  A    between atoms: _350  and  _351
REMARK  138  A    between atoms: _350  and  _353
REMARK  139  A    between atoms: _356  and  _358
REMARK  140  A    between atoms: _358  and  _359
REMARK  141  A    between atoms: _361  and  _363
REMARK  142  A    between atoms: _363  and  _364
REMARK  143  A    between atoms: _363  and  _366
REMARK  144  A    between atoms: _366  and  _367
REMARK  145  A    between atoms: _367  and  _368
REMARK  146  A    between atoms: _368  and  _369
REMARK  147  A    between atoms: _369  and  _370
REMARK  148  A    between atoms: _374  and  _376
REMARK  149  A    between atoms: _376  and  _377
REMARK  150  A    between atoms: _376  and  _379
REMARK  151  A    between atoms: _379  and  _380
REMARK  152  A    between atoms: _383  and  _385
REMARK  153  A    between atoms: _385  and  _386
REMARK  154  A    between atoms: _389  and  _391
REMARK  155  A    between atoms: _391  and  _392
REMARK  156  A    between atoms: _394  and  _396
REMARK  157  A    between atoms: _396  and  _397
REMARK  158  A    between atoms: _396  and  _399
REMARK  159  A    between atoms: _399  and  _400
REMARK  160  A    between atoms: _403  and  _405
REMARK  161  A    between atoms: _405  and  _406
REMARK  162  A    between atoms: _405  and  _408
REMARK  163  A    between atoms: _408  and  _409
REMARK  164  A    between atoms: _412  and  _414
REMARK  165  A    between atoms: _414  and  _415
REMARK  166  A    between atoms: _418  and  _420
REMARK  167  A    between atoms: _420  and  _421
REMARK  168  A    between atoms: _420  and  _423
REMARK  169  A    between atoms: _423  and  _424
REMARK  170  A    between atoms: _424  and  _425
REMARK  171  A    between atoms: _428  and  _430
REMARK  172  A    between atoms: _430  and  _431
REMARK  173  A    between atoms: _430  and  _433
REMARK  174  A    between atoms: _436  and  _438
REMARK  175  A    between atoms: _438  and  _439
REMARK  176  A    between atoms: _438  and  _441
REMARK  177  A    between atoms: _441  and  _442
REMARK  178  A    between atoms: _445  and  _447
REMARK  179  A    between atoms: _447  and  _448
REMARK  180  A    between atoms: _450  and  _452
REMARK  181  A    between atoms: _452  and  _453
REMARK  182  A    between atoms: _452  and  _455
REMARK  183  A    between atoms: _458  and  _460
REMARK  184  A    between atoms: _460  and  _461
REMARK  185  A    between atoms: _463  and  _465
REMARK  186  A    between atoms: _465  and  _466
REMARK  187  A    between atoms: _465  and  _468
REMARK  188  A    between atoms: _468  and  _469
REMARK  189  A    between atoms: _472  and  _474
REMARK  190  A    between atoms: _474  and  _475
REMARK  191  A    between atoms: _474  and  _477
REMARK  192  A    between atoms: _477  and  _478
REMARK  193  A    between atoms: _483  and  _485
REMARK  194  A    between atoms: _485  and  _486
REMARK  195  A    between atoms: _485  and  _488
REMARK  196  A    between atoms: _491  and  _493
REMARK  197  A    between atoms: _493  and  _494
REMARK  198  A    between atoms: _493  and  _496
REMARK  199  A    between atoms: _496  and  _497
REMARK  200  A    between atoms: _497  and  _498
REMARK  201  A    between atoms: _503  and  _505
REMARK  202  A    between atoms: _505  and  _506
REMARK  203  A    between atoms: _510  and  _511
REMARK  204  A    between atoms: _516  and  _518
REMARK  205  A    between atoms: _518  and  _519
REMARK  206  A    between atoms: _518  and  _521
REMARK  207  A    between atoms: _521  and  _522
REMARK  208  A    between atoms: _522  and  _523
REMARK  209  A    between atoms: _526  and  _528
REMARK  210  A    between atoms: _528  and  _529
REMARK  211  A    between atoms: _528  and  _531
REMARK  212  A    between atoms: _534  and  _536
REMARK  213  A    between atoms: _536  and  _537
REMARK  214  A    between atoms: _536  and  _539
REMARK  215  A    between atoms: _539  and  _540
REMARK  216  A    between atoms: _544  and  _545
REMARK  217  A    between atoms: _550  and  _552
REMARK  218  A    between atoms: _552  and  _553
REMARK  219  A    between atoms: _552  and  _555
REMARK  220  A    between atoms: _555  and  _556
REMARK  221  A    between atoms: _559  and  _561
REMARK  222  A    between atoms: _561  and  _562
REMARK  223  A    between atoms: _565  and  _567
REMARK  224  A    between atoms: _567  and  _568
REMARK  225  A    between atoms: _567  and  _570
REMARK  226  A    between atoms: _570  and  _571
REMARK  227  A    between atoms: _574  and  _576
REMARK  228  A    between atoms: _576  and  _577
REMARK  229  A    between atoms: _576  and  _579
REMARK  230  A    between atoms: _579  and  _580
REMARK  231  A    between atoms: _582  and  _584
REMARK  232  A    between atoms: _584  and  _585
REMARK  233  A    between atoms: _587  and  _589
REMARK  234  A    between atoms: _589  and  _590
REMARK  235  A    between atoms: _589  and  _592
REMARK  236  A    between atoms: _592  and  _593
REMARK  237  A    between atoms: _596  and  _598
REMARK  238  A    between atoms: _598  and  _599
REMARK  239  A    between atoms: _598  and  _601
REMARK                            x       y       z     vdW  Elec       q    Type
REMARK                         _______ _______ _______ _____ _____    ______ ____
ROOT
ATOM      1  CA  ASP A   2      -6.474  -4.254  -1.310  0.00  0.00    +0.160 C 
ENDROOT
BRANCH   1   4
ATOM      2  C   GLY A   1      -5.655  -6.405  -2.084  0.00  0.00    +0.240 C 
ATOM      3  O   GLY A   1      -6.247  -7.012  -1.192  0.00  0.00    -0.274 OA
ATOM      4  N   ASP A   2      -5.678  -5.083  -2.200  0.00  0.00    -0.297 N 
ATOM      5  H   ASP A   2      -5.113  -4.629  -2.946  0.00  0.00    +0.150 HD
BRANCH   2   6
ATOM      6  CA  GLY A   1      -4.836  -7.147  -3.116  0.00  0.00    +0.169 C 
BRANCH   6   7
ATOM      7  N   GLY A   1      -4.662  -8.540  -2.762  0.00  0.00    -0.236 NA
ATOM      8  H   GLY A   1      -4.920  -8.860  -1.807  0.00  0.00    +0.142 HD
ENDBRANCH   6   7
ENDBRANCH   2   6
ENDBRANCH   1   4
BRANCH   1   9
ATOM      9  C   ASP A   2      -7.716  -3.778  -2.045  0.00  0.00    +0.241 C 
ATOM     10  N   VAL A   3      -8.883  -4.106  -1.503  0.00  0.00    -0.298 N 
ATOM     11  H   VAL A   3      -8.902  -4.624  -0.601  0.00  0.00    +0.150 HD
ATOM     12  O   ASP A   2      -7.620  -3.126  -3.084  0.00  0.00    -0.273 OA
BRANCH  10  13
ATOM     13  CA  VAL A   3     -10.136  -3.751  -2.152  0.00  0.00    +0.137 C 
BRANCH  13  14
ATOM     14  CB  VAL A   3     -11.195  -4.862  -1.995  0.00  0.00    +0.026 C 
ATOM     15  CG2 VAL A   3     -12.528  -4.411  -2.577  0.00  0.00    +0.002 C 
ATOM     16  CG1 VAL A   3     -10.723  -6.150  -2.652  0.00  0.00    +0.002 C 
ENDBRANCH  13  14
BRANCH  13  17
ATOM     17  C   VAL A   3     -10.711  -2.442  -1.625  0.00  0.00    +0.227 C 
ATOM     18  O   VAL A   3     -10.750  -2.201  -0.418  0.00  0.00    -0.286 OA
ENDBRANCH  13  17
ENDBRANCH  10  13
ENDBRANCH   1   9
BRANCH   1  19
ATOM     19  CB  ASP A   2      -5.659  -3.056  -0.830  0.00  0.00    +0.143 C 
BRANCH  19  20
ATOM     20  CG  ASP A   2      -4.321  -3.462  -0.253  0.00  0.00    +0.367 C 
ATOM     21  OD2 ASP A   2      -4.258  -4.523   0.406  0.00  0.00    -0.246 OA
ATOM     22  OD1 ASP A   2      -3.331  -2.730  -0.469  0.00  0.00    -0.246 OA
ENDBRANCH  19  20
ENDBRANCH   1  19
TORSDOF 9
REMARK  Name = ../refined-set-2016/3rux/3rux_pocket.pdb
REMARK  239 active torsions:
REMARK  status: ('A' for Active; 'I' for Inactive)
REMARK    1  A    between atoms: _1  and  _3
REMARK    2  A    between atoms: _3  and  _4
REMARK    3  A    between atoms: _3  and  _6
REMARK    4  A    between atoms: _6  and  _7
REMARK    5  A    between atoms: _10  and  _12
REMARK    6  A    between atoms: _12  and  _13
REMARK    7  A    between atoms: _15  and  _17
REMARK    8  A    between atoms: _17  and  _18
REMARK    9  A    between atoms: _17  and  _20
REMARK   10  A    between atoms: _20  and  _21
REMARK   11  A    between atoms: _23  and  _25
REMARK   12  A    between atoms: _25  and  _26
REMARK   13  A    between atoms: _25  and  _28
REMARK   14  A    between atoms: _28  and  _29
REMARK   15  A    between atoms: _32  and  _34
REMARK   16  A    between atoms: _34  and  _35
REMARK   17  A    between atoms: _34  and  _37
REMARK   18  A    between atoms: _37  and  _38
REMARK   19  A    between atoms: _43  and  _45
REMARK   20  A    between atoms: _45  and  _46
REMARK   21  A    between atoms: _49  and  _51
REMARK   22  A    between atoms: _51  and  _52
REMARK   23  A    between atoms: _51  and  _54
REMARK   24  A    between atoms: _54  and  _55
REMARK   25  A    between atoms: _58  and  _60
REMARK   26  A    between atoms: _60  and  _61
REMARK   27  A    between atoms: _60  and  _63
REMARK   28  A    between atoms: _63  and  _64
REMARK   29  A    between atoms: _67  and  _69
REMARK   30  A    between atoms: _69  and  _70
REMARK   31  A    between atoms: _69  and  _72
REMARK   32  A    between atoms: _72  and  _73
REMARK   33  A    between atoms: _76  and  _78
REMARK   34  A    between atoms: _78  and  _79
REMARK   35  A    between atoms: _78  and  _81
REMARK   36  A    between atoms: _81  and  _82
REMARK   37  A    between atoms: _85  and  _87
REMARK   38  A    between atoms: _87  and  _88
REMARK   39  A    between atoms: _91  and  _93
REMARK   40  A    between atoms: _93  and  _94
REMARK   41  A    between atoms: _93  and  _96
REMARK   42  A    between atoms: _96  and  _97
REMARK   43  A    between atoms: _97  and  _98
REMARK   44  A    between atoms: _103  and  _105
REMARK   45  A    between atoms: _105  and  _106
REMARK   46  A    between atoms: _105  and  _108
REMARK   47  A    between atoms: _108  and  _109
REMARK   48  A    between atoms: _112  and  _114
REMARK   49  A    between atoms: _114  and  _115
REMARK   50  A    between atoms: _118  and  _120
REMARK   51  A    between atoms: _120  and  _121
REMARK   52  A    between atoms: _123  and  _125
REMARK   53  A    between atoms: _125  and  _126
REMARK   54  A    between atoms: _125  and  _128
REMARK   55  A    between atoms: _128  and  _129
REMARK   56  A    between atoms: _129  and  _130
REMARK   57  A    between atoms: _130  and  _131
REMARK   58  A    between atoms: _140  and  _142
REMARK   59  A    between atoms: _142  and  _143
REMARK   60  A    between atoms: _145  and  _147
REMARK   61  A    between atoms: _147  and  _148
REMARK   62  A    between atoms: _147  and  _150
REMARK   63  A    between atoms: _150  and  _151
REMARK   64  A    between atoms: _151  and  _152
REMARK   65  A    between atoms: _152  and  _153
REMARK   66  A    between atoms: _162  and  _164
REMARK   67  A    between atoms: _164  and  _165
REMARK   68  A    between atoms: _164  and  _167
REMARK   69  A    between atoms: _167  and  _168
REMARK   70  A    between atoms: _173  and  _175
REMARK   71  A    between atoms: _175  and  _176
REMARK   72  A    between atoms: _178  and  _180
REMARK   73  A    between atoms: _180  and  _181
REMARK   74  A    between atoms: _180  and  _183
REMARK   75  A    between atoms: _183  and  _184
REMARK   76  A    between atoms: _184  and  _185
REMARK   77  A    between atoms: _185  and  _186
REMARK   78  A    between atoms: _195  and  _197
REMARK   79  A    between atoms: _197  and  _198
REMARK   80  A    between atoms: _200  and  _202
REMARK   81  A    between atoms: _202  and  _203
REMARK   82  A    between atoms: _202  and  _205
REMARK   83  A    between atoms: _205  and  _206
REMARK   84  A    between atoms: _216  and  _218
REMARK   85  A    between atoms: _218  and  _219
REMARK   86  A    between atoms: _222  and  _224
REMARK   87  A    between atoms: _224  and  _225
REMARK   88  A    between atoms: _228  and  _230
REMARK   89  A    between atoms: _230  and  _231
REMARK   90  A    between atoms: _230  and  _233
REMARK   91  A    between atoms: _233  and  _234
REMARK   92  A    between atoms: _237  and  _239
REMARK   93  A    between atoms: _239  and  _240
REMARK   94  A    between atoms: _239  and  _242
REMARK   95  A    between atoms: _242  and  _243
REMARK   96  A    between atoms: _243  and  _244
REMARK   97  A    between atoms: _249  and  _251
REMARK   98  A    between atoms: _251  and  _252
REMARK   99  A    between atoms: _251  and  _254
REMARK  100  A    between atoms: _254  and  _255
REMARK  101  A    between atoms: _258  and  _260
REMARK  102  A    between atoms: _260  and  _261
REMARK  103  A    between atoms: _260  and  _263
REMARK  104  A    between atoms: _263  and  _264
REMARK  105  A    between atoms: _267  and  _269
REMARK  106  A    between atoms: _269  and  _270
REMARK  107  A    between atoms: _269  and  _272
REMARK  108  A    between atoms: _272  and  _273
REMARK  109  A    between atoms: _276  and  _278
REMARK  110  A    between atoms: _278  and  _279
REMARK  111  A    between atoms: _278  and  _281
REMARK  112  A    between atoms: _281  and  _282
REMARK  113  A    between atoms: _284  and  _286
REMARK  114  A    between atoms: _286  and  _287
REMARK  115  A    between atoms: _286  and  _289
REMARK  116  A    between atoms: _292  and  _294
REMARK  117  A    between atoms: _294  and  _295
REMARK  118  A    between atoms: _294  and  _297
REMARK  119  A    between atoms: _297  and  _298
REMARK  120  A    between atoms: _298  and  _299
REMARK  121  A    between atoms: _299  and  _300
REMARK  122  A    between atoms: _300  and  _301
REMARK  123  A    between atoms: _305  and  _307
REMARK  124  A    between atoms: _307  and  _308
REMARK  125  A    between atoms: _307  and  _310
REMARK  126  A    between atoms: _310  and  _311
REMARK  127  A    between atoms: _322  and  _323
REMARK  128  A    between atoms: _328  and  _330
REMARK  129  A    between atoms: _330  and  _331
REMARK  130  A    between atoms: _330  and  _333
REMARK  131  A    between atoms: _333  and  _334
REMARK  132  A    between atoms: _339  and  _341
REMARK  133  A    between atoms: _341  and  _342
REMARK  134  A    between atoms: _341  and  _344
REMARK  135  A    between atoms: _344  and  _345
REMARK  136  A    between atoms: _348  and  _350
REMARK  137  A    between atoms: _350  and  _351
REMARK  138  A    between atoms: _350  and  _353
REMARK  139  A    between atoms: _356  and  _358
REMARK  140  A    between atoms: _358  and  _359
REMARK  141  A    between atoms: _361  and  _363
REMARK  142  A    between atoms: _363  and  _364
REMARK  143  A    between atoms: _363  and  _366
REMARK  144  A    between atoms: _366  and  _367
REMARK  145  A    between atoms: _367  and  _368
REMARK  146  A    between atoms: _368  and  _369
REMARK  147  A    between atoms: _369  and  _370
REMARK  148  A    between atoms: _374  and  _376
REMARK  149  A    between atoms: _376  and  _377
REMARK  150  A    between atoms: _376  and  _379
REMARK  151  A    between atoms: _379  and  _380
REMARK  152  A    between atoms: _383  and  _385
REMARK  153  A    between atoms: _385  and  _386
REMARK  154  A    between atoms: _389  and  _391
REMARK  155  A    between atoms: _391  and  _392
REMARK  156  A    between atoms: _394  and  _396
REMARK  157  A    between atoms: _396  and  _397
REMARK  158  A    between atoms: _396  and  _399
REMARK  159  A    between atoms: _399  and  _400
REMARK  160  A    between atoms: _403  and  _405
REMARK  161  A    between atoms: _405  and  _406
REMARK  162  A    between atoms: _405  and  _408
REMARK  163  A    between atoms: _408  and  _409
REMARK  164  A    between atoms: _412  and  _414
REMARK  165  A    between atoms: _414  and  _415
REMARK  166  A    between atoms: _418  and  _420
REMARK  167  A    between atoms: _420  and  _421
REMARK  168  A    between atoms: _420  and  _423
REMARK  169  A    between atoms: _423  and  _424
REMARK  170  A    between atoms: _424  and  _425
REMARK  171  A    between atoms: _428  and  _430
REMARK  172  A    between atoms: _430  and  _431
REMARK  173  A    between atoms: _430  and  _433
REMARK  174  A    between atoms: _436  and  _438
REMARK  175  A    between atoms: _438  and  _439
REMARK  176  A    between atoms: _438  and  _441
REMARK  177  A    between atoms: _441  and  _442
REMARK  178  A    between atoms: _445  and  _447
REMARK  179  A    between atoms: _447  and  _448
REMARK  180  A    between atoms: _450  and  _452
REMARK  181  A    between atoms: _452  and  _453
REMARK  182  A    between atoms: _452  and  _455
REMARK  183  A    between atoms: _458  and  _460
REMARK  184  A    between atoms: _460  and  _461
REMARK  185  A    between atoms: _463  and  _465
REMARK  186  A    between atoms: _465  and  _466
REMARK  187  A    between atoms: _465  and  _468
REMARK  188  A    between atoms: _468  and  _469
REMARK  189  A    between atoms: _472  and  _474
REMARK  190  A    between atoms: _474  and  _475
REMARK  191  A    between atoms: _474  and  _477
REMARK  192  A    between atoms: _477  and  _478
REMARK  193  A    between atoms: _483  and  _485
REMARK  194  A    between atoms: _485  and  _486
REMARK  195  A    between atoms: _485  and  _488
REMARK  196  A    between atoms: _491  and  _493
REMARK  197  A    between atoms: _493  and  _494
REMARK  198  A    between atoms: _493  and  _496
REMARK  199  A    between atoms: _496  and  _497
REMARK  200  A    between atoms: _497  and  _498
REMARK  201  A    between atoms: _503  and  _505
REMARK  202  A    between atoms: _505  and  _506
REMARK  203  A    between atoms: _510  and  _511
REMARK  204  A    between atoms: _516  and  _518
REMARK  205  A    between atoms: _518  and  _519
REMARK  206  A    between atoms: _518  and  _521
REMARK  207  A    between atoms: _521  and  _522
REMARK  208  A    between atoms: _522  and  _523
REMARK  209  A    between atoms: _526  and  _528
REMARK  210  A    between atoms: _528  and  _529
REMARK  211  A    between atoms: _528  and  _531
REMARK  212  A    between atoms: _534  and  _536
REMARK  213  A    between atoms: _536  and  _537
REMARK  214  A    between atoms: _536  and  _539
REMARK  215  A    between atoms: _539  and  _540
REMARK  216  A    between atoms: _544  and  _545
REMARK  217  A    between atoms: _550  and  _552
REMARK  218  A    between atoms: _552  and  _553
REMARK  219  A    between atoms: _552  and  _555
REMARK  220  A    between atoms: _555  and  _556
REMARK  221  A    between atoms: _559  and  _561
REMARK  222  A    between atoms: _561  and  _562
REMARK  223  A    between atoms: _565  and  _567
REMARK  224  A    between atoms: _567  and  _568
REMARK  225  A    between atoms: _567  and  _570
REMARK  226  A    between atoms: _570  and  _571
REMARK  227  A    between atoms: _574  and  _576
REMARK  228  A    between atoms: _576  and  _577
REMARK  229  A    between atoms: _576  and  _579
REMARK  230  A    between atoms: _579  and  _580
REMARK  231  A    between atoms: _582  and  _584
REMARK  232  A    between atoms: _584  and  _585
REMARK  233  A    between atoms: _587  and  _589
REMARK  234  A    between atoms: _589  and  _590
REMARK  235  A    between atoms: _589  and  _592
REMARK  236  A    between atoms: _592  and  _593
REMARK  237  A    between atoms: _596  and  _598
REMARK  238  A    between atoms: _598  and  _599
REMARK  239  A    between atoms: _598  and  _601
REMARK                            x       y       z     vdW  Elec       q    Type
REMARK                         _______ _______ _______ _____ _____    ______ ____
ROOT
ATOM      1  O   HOH     1       0.844 -10.359   3.425  0.00  0.00    +0.000 OA
ENDROOT
TORSDOF 0
REMARK  Name = ../refined-set-2016/3rux/3rux_pocket.pdb
REMARK  239 active torsions:
REMARK  status: ('A' for Active; 'I' for Inactive)
REMARK    1  A    between atoms: _1  and  _3
REMARK    2  A    between atoms: _3  and  _4
REMARK    3  A    between atoms: _3  and  _6
REMARK    4  A    between atoms: _6  and  _7
REMARK    5  A    between atoms: _10  and  _12
REMARK    6  A    between atoms: _12  and  _13
REMARK    7  A    between atoms: _15  and  _17
REMARK    8  A    between atoms: _17  and  _18
REMARK    9  A    between atoms: _17  and  _20
REMARK   10  A    between atoms: _20  and  _21
REMARK   11  A    between atoms: _23  and  _25
REMARK   12  A    between atoms: _25  and  _26
REMARK   13  A    between atoms: _25  and  _28
REMARK   14  A    between atoms: _28  and  _29
REMARK   15  A    between atoms: _32  and  _34
REMARK   16  A    between atoms: _34  and  _35
REMARK   17  A    between atoms: _34  and  _37
REMARK   18  A    between atoms: _37  and  _38
REMARK   19  A    between atoms: _43  and  _45
REMARK   20  A    between atoms: _45  and  _46
REMARK   21  A    between atoms: _49  and  _51
REMARK   22  A    between atoms: _51  and  _52
REMARK   23  A    between atoms: _51  and  _54
REMARK   24  A    between atoms: _54  and  _55
REMARK   25  A    between atoms: _58  and  _60
REMARK   26  A    between atoms: _60  and  _61
REMARK   27  A    between atoms: _60  and  _63
REMARK   28  A    between atoms: _63  and  _64
REMARK   29  A    between atoms: _67  and  _69
REMARK   30  A    between atoms: _69  and  _70
REMARK   31  A    between atoms: _69  and  _72
REMARK   32  A    between atoms: _72  and  _73
REMARK   33  A    between atoms: _76  and  _78
REMARK   34  A    between atoms: _78  and  _79
REMARK   35  A    between atoms: _78  and  _81
REMARK   36  A    between atoms: _81  and  _82
REMARK   37  A    between atoms: _85  and  _87
REMARK   38  A    between atoms: _87  and  _88
REMARK   39  A    between atoms: _91  and  _93
REMARK   40  A    between atoms: _93  and  _94
REMARK   41  A    between atoms: _93  and  _96
REMARK   42  A    between atoms: _96  and  _97
REMARK   43  A    between atoms: _97  and  _98
REMARK   44  A    between atoms: _103  and  _105
REMARK   45  A    between atoms: _105  and  _106
REMARK   46  A    between atoms: _105  and  _108
REMARK   47  A    between atoms: _108  and  _109
REMARK   48  A    between atoms: _112  and  _114
REMARK   49  A    between atoms: _114  and  _115
REMARK   50  A    between atoms: _118  and  _120
REMARK   51  A    between atoms: _120  and  _121
REMARK   52  A    between atoms: _123  and  _125
REMARK   53  A    between atoms: _125  and  _126
REMARK   54  A    between atoms: _125  and  _128
REMARK   55  A    between atoms: _128  and  _129
REMARK   56  A    between atoms: _129  and  _130
REMARK   57  A    between atoms: _130  and  _131
REMARK   58  A    between atoms: _140  and  _142
REMARK   59  A    between atoms: _142  and  _143
REMARK   60  A    between atoms: _145  and  _147
REMARK   61  A    between atoms: _147  and  _148
REMARK   62  A    between atoms: _147  and  _150
REMARK   63  A    between atoms: _150  and  _151
REMARK   64  A    between atoms: _151  and  _152
REMARK   65  A    between atoms: _152  and  _153
REMARK   66  A    between atoms: _162  and  _164
REMARK   67  A    between atoms: _164  and  _165
REMARK   68  A    between atoms: _164  and  _167
REMARK   69  A    between atoms: _167  and  _168
REMARK   70  A    between atoms: _173  and  _175
REMARK   71  A    between atoms: _175  and  _176
REMARK   72  A    between atoms: _178  and  _180
REMARK   73  A    between atoms: _180  and  _181
REMARK   74  A    between atoms: _180  and  _183
REMARK   75  A    between atoms: _183  and  _184
REMARK   76  A    between atoms: _184  and  _185
REMARK   77  A    between atoms: _185  and  _186
REMARK   78  A    between atoms: _195  and  _197
REMARK   79  A    between atoms: _197  and  _198
REMARK   80  A    between atoms: _200  and  _202
REMARK   81  A    between atoms: _202  and  _203
REMARK   82  A    between atoms: _202  and  _205
REMARK   83  A    between atoms: _205  and  _206
REMARK   84  A    between atoms: _216  and  _218
REMARK   85  A    between atoms: _218  and  _219
REMARK   86  A    between atoms: _222  and  _224
REMARK   87  A    between atoms: _224  and  _225
REMARK   88  A    between atoms: _228  and  _230
REMARK   89  A    between atoms: _230  and  _231
REMARK   90  A    between atoms: _230  and  _233
REMARK   91  A    between atoms: _233  and  _234
REMARK   92  A    between atoms: _237  and  _239
REMARK   93  A    between atoms: _239  and  _240
REMARK   94  A    between atoms: _239  and  _242
REMARK   95  A    between atoms: _242  and  _243
REMARK   96  A    between atoms: _243  and  _244
REMARK   97  A    between atoms: _249  and  _251
REMARK   98  A    between atoms: _251  and  _252
REMARK   99  A    between atoms: _251  and  _254
REMARK  100  A    between atoms: _254  and  _255
REMARK  101  A    between atoms: _258  and  _260
REMARK  102  A    between atoms: _260  and  _261
REMARK  103  A    between atoms: _260  and  _263
REMARK  104  A    between atoms: _263  and  _264
REMARK  105  A    between atoms: _267  and  _269
REMARK  106  A    between atoms: _269  and  _270
REMARK  107  A    between atoms: _269  and  _272
REMARK  108  A    between atoms: _272  and  _273
REMARK  109  A    between atoms: _276  and  _278
REMARK  110  A    between atoms: _278  and  _279
REMARK  111  A    between atoms: _278  and  _281
REMARK  112  A    between atoms: _281  and  _282
REMARK  113  A    between atoms: _284  and  _286
REMARK  114  A    between atoms: _286  and  _287
REMARK  115  A    between atoms: _286  and  _289
REMARK  116  A    between atoms: _292  and  _294
REMARK  117  A    between atoms: _294  and  _295
REMARK  118  A    between atoms: _294  and  _297
REMARK  119  A    between atoms: _297  and  _298
REMARK  120  A    between atoms: _298  and  _299
REMARK  121  A    between atoms: _299  and  _300
REMARK  122  A    between atoms: _300  and  _301
REMARK  123  A    between atoms: _305  and  _307
REMARK  124  A    between atoms: _307  and  _308
REMARK  125  A    between atoms: _307  and  _310
REMARK  126  A    between atoms: _310  and  _311
REMARK  127  A    between atoms: _322  and  _323
REMARK  128  A    between atoms: _328  and  _330
REMARK  129  A    between atoms: _330  and  _331
REMARK  130  A    between atoms: _330  and  _333
REMARK  131  A    between atoms: _333  and  _334
REMARK  132  A    between atoms: _339  and  _341
REMARK  133  A    between atoms: _341  and  _342
REMARK  134  A    between atoms: _341  and  _344
REMARK  135  A    between atoms: _344  and  _345
REMARK  136  A    between atoms: _348  and  _350
REMARK  137  A    between atoms: _350  and  _351
REMARK  138  A    between atoms: _350  and  _353
REMARK  139  A    between atoms: _356  and  _358
REMARK  140  A    between atoms: _358  and  _359
REMARK  141  A    between atoms: _361  and  _363
REMARK  142  A    between atoms: _363  and  _364
REMARK  143  A    between atoms: _363  and  _366
REMARK  144  A    between atoms: _366  and  _367
REMARK  145  A    between atoms: _367  and  _368
REMARK  146  A    between atoms: _368  and  _369
REMARK  147  A    between atoms: _369  and  _370
REMARK  148  A    between atoms: _374  and  _376
REMARK  149  A    between atoms: _376  and  _377
REMARK  150  A    between atoms: _376  and  _379
REMARK  151  A    between atoms: _379  and  _380
REMARK  152  A    between atoms: _383  and  _385
REMARK  153  A    between atoms: _385  and  _386
REMARK  154  A    between atoms: _389  and  _391
REMARK  155  A    between atoms: _391  and  _392
REMARK  156  A    between atoms: _394  and  _396
REMARK  157  A    between atoms: _396  and  _397
REMARK  158  A    between atoms: _396  and  _399
REMARK  159  A    between atoms: _399  and  _400
REMARK  160  A    between atoms: _403  and  _405
REMARK  161  A    between atoms: _405  and  _406
REMARK  162  A    between atoms: _405  and  _408
REMARK  163  A    between atoms: _408  and  _409
REMARK  164  A    between atoms: _412  and  _414
REMARK  165  A    between atoms: _414  and  _415
REMARK  166  A    between atoms: _418  and  _420
REMARK  167  A    between atoms: _420  and  _421
REMARK  168  A    between atoms: _420  and  _423
REMARK  169  A    between atoms: _423  and  _424
REMARK  170  A    between atoms: _424  and  _425
REMARK  171  A    between atoms: _428  and  _430
REMARK  172  A    between atoms: _430  and  _431
REMARK  173  A    between atoms: _430  and  _433
REMARK  174  A    between atoms: _436  and  _438
REMARK  175  A    between atoms: _438  and  _439
REMARK  176  A    between atoms: _438  and  _441
REMARK  177  A    between atoms: _441  and  _442
REMARK  178  A    between atoms: _445  and  _447
REMARK  179  A    between atoms: _447  and  _448
REMARK  180  A    between atoms: _450  and  _452
REMARK  181  A    between atoms: _452  and  _453
REMARK  182  A    between atoms: _452  and  _455
REMARK  183  A    between atoms: _458  and  _460
REMARK  184  A    between atoms: _460  and  _461
REMARK  185  A    between atoms: _463  and  _465
REMARK  186  A    between atoms: _465  and  _466
REMARK  187  A    between atoms: _465  and  _468
REMARK  188  A    between atoms: _468  and  _469
REMARK  189  A    between atoms: _472  and  _474
REMARK  190  A    between atoms: _474  and  _475
REMARK  191  A    between atoms: _474  and  _477
REMARK  192  A    between atoms: _477  and  _478
REMARK  193  A    between atoms: _483  and  _485
REMARK  194  A    between atoms: _485  and  _486
REMARK  195  A    between atoms: _485  and  _488
REMARK  196  A    between atoms: _491  and  _493
REMARK  197  A    between atoms: _493  and  _494
REMARK  198  A    between atoms: _493  and  _496
REMARK  199  A    between atoms: _496  and  _497
REMARK  200  A    between atoms: _497  and  _498
REMARK  201  A    between atoms: _503  and  _505
REMARK  202  A    between atoms: _505  and  _506
REMARK  203  A    between atoms: _510  and  _511
REMARK  204  A    between atoms: _516  and  _518
REMARK  205  A    between atoms: _518  and  _519
REMARK  206  A    between atoms: _518  and  _521
REMARK  207  A    between atoms: _521  and  _522
REMARK  208  A    between atoms: _522  and  _523
REMARK  209  A    between atoms: _526  and  _528
REMARK  210  A    between atoms: _528  and  _529
REMARK  211  A    between atoms: _528  and  _531
REMARK  212  A    between atoms: _534  and  _536
REMARK  213  A    between atoms: _536  and  _537
REMARK  214  A    between atoms: _536  and  _539
REMARK  215  A    between atoms: _539  and  _540
REMARK  216  A    between atoms: _544  and  _545
REMARK  217  A    between atoms: _550  and  _552
REMARK  218  A    between atoms: _552  and  _553
REMARK  219  A    between atoms: _552  and  _555
REMARK  220  A    between atoms: _555  and  _556
REMARK  221  A    between atoms: _559  and  _561
REMARK  222  A    between atoms: _561  and  _562
REMARK  223  A    between atoms: _565  and  _567
REMARK  224  A    between atoms: _567  and  _568
REMARK  225  A    between atoms: _567  and  _570
REMARK  226  A    between atoms: _570  and  _571
REMARK  227  A    between atoms: _574  and  _576
REMARK  228  A    between atoms: _576  and  _577
REMARK  229  A    between atoms: _576  and  _579
REMARK  230  A    between atoms: _579  and  _580
REMARK  231  A    between atoms: _582  and  _584
REMARK  232  A    between atoms: _584  and  _585
REMARK  233  A    between atoms: _587  and  _589
REMARK  234  A    between atoms: _589  and  _590
REMARK  235  A    between atoms: _589  and  _592
REMARK  236  A    between atoms: _592  and  _593
REMARK  237  A    between atoms: _596  and  _598
REMARK  238  A    between atoms: _598  and  _599
REMARK  239  A    between atoms: _598  and  _601
REMARK                            x       y       z     vdW  Elec       q    Type
REMARK                         _______ _______ _______ _____ _____    ______ ____
ROOT
ATOM      1  O   HOH     1      -9.092  -5.511   0.879  0.00  0.00    +0.000 OA
ENDROOT
TORSDOF 0
REMARK  Name = ../refined-set-2016/3rux/3rux_pocket.pdb
REMARK  239 active torsions:
REMARK  status: ('A' for Active; 'I' for Inactive)
REMARK    1  A    between atoms: _1  and  _3
REMARK    2  A    between atoms: _3  and  _4
REMARK    3  A    between atoms: _3  and  _6
REMARK    4  A    between atoms: _6  and  _7
REMARK    5  A    between atoms: _10  and  _12
REMARK    6  A    between atoms: _12  and  _13
REMARK    7  A    between atoms: _15  and  _17
REMARK    8  A    between atoms: _17  and  _18
REMARK    9  A    between atoms: _17  and  _20
REMARK   10  A    between atoms: _20  and  _21
REMARK   11  A    between atoms: _23  and  _25
REMARK   12  A    between atoms: _25  and  _26
REMARK   13  A    between atoms: _25  and  _28
REMARK   14  A    between atoms: _28  and  _29
REMARK   15  A    between atoms: _32  and  _34
REMARK   16  A    between atoms: _34  and  _35
REMARK   17  A    between atoms: _34  and  _37
REMARK   18  A    between atoms: _37  and  _38
REMARK   19  A    between atoms: _43  and  _45
REMARK   20  A    between atoms: _45  and  _46
REMARK   21  A    between atoms: _49  and  _51
REMARK   22  A    between atoms: _51  and  _52
REMARK   23  A    between atoms: _51  and  _54
REMARK   24  A    between atoms: _54  and  _55
REMARK   25  A    between atoms: _58  and  _60
REMARK   26  A    between atoms: _60  and  _61
REMARK   27  A    between atoms: _60  and  _63
REMARK   28  A    between atoms: _63  and  _64
REMARK   29  A    between atoms: _67  and  _69
REMARK   30  A    between atoms: _69  and  _70
REMARK   31  A    between atoms: _69  and  _72
REMARK   32  A    between atoms: _72  and  _73
REMARK   33  A    between atoms: _76  and  _78
REMARK   34  A    between atoms: _78  and  _79
REMARK   35  A    between atoms: _78  and  _81
REMARK   36  A    between atoms: _81  and  _82
REMARK   37  A    between atoms: _85  and  _87
REMARK   38  A    between atoms: _87  and  _88
REMARK   39  A    between atoms: _91  and  _93
REMARK   40  A    between atoms: _93  and  _94
REMARK   41  A    between atoms: _93  and  _96
REMARK   42  A    between atoms: _96  and  _97
REMARK   43  A    between atoms: _97  and  _98
REMARK   44  A    between atoms: _103  and  _105
REMARK   45  A    between atoms: _105  and  _106
REMARK   46  A    between atoms: _105  and  _108
REMARK   47  A    between atoms: _108  and  _109
REMARK   48  A    between atoms: _112  and  _114
REMARK   49  A    between atoms: _114  and  _115
REMARK   50  A    between atoms: _118  and  _120
REMARK   51  A    between atoms: _120  and  _121
REMARK   52  A    between atoms: _123  and  _125
REMARK   53  A    between atoms: _125  and  _126
REMARK   54  A    between atoms: _125  and  _128
REMARK   55  A    between atoms: _128  and  _129
REMARK   56  A    between atoms: _129  and  _130
REMARK   57  A    between atoms: _130  and  _131
REMARK   58  A    between atoms: _140  and  _142
REMARK   59  A    between atoms: _142  and  _143
REMARK   60  A    between atoms: _145  and  _147
REMARK   61  A    between atoms: _147  and  _148
REMARK   62  A    between atoms: _147  and  _150
REMARK   63  A    between atoms: _150  and  _151
REMARK   64  A    between atoms: _151  and  _152
REMARK   65  A    between atoms: _152  and  _153
REMARK   66  A    between atoms: _162  and  _164
REMARK   67  A    between atoms: _164  and  _165
REMARK   68  A    between atoms: _164  and  _167
REMARK   69  A    between atoms: _167  and  _168
REMARK   70  A    between atoms: _173  and  _175
REMARK   71  A    between atoms: _175  and  _176
REMARK   72  A    between atoms: _178  and  _180
REMARK   73  A    between atoms: _180  and  _181
REMARK   74  A    between atoms: _180  and  _183
REMARK   75  A    between atoms: _183  and  _184
REMARK   76  A    between atoms: _184  and  _185
REMARK   77  A    between atoms: _185  and  _186
REMARK   78  A    between atoms: _195  and  _197
REMARK   79  A    between atoms: _197  and  _198
REMARK   80  A    between atoms: _200  and  _202
REMARK   81  A    between atoms: _202  and  _203
REMARK   82  A    between atoms: _202  and  _205
REMARK   83  A    between atoms: _205  and  _206
REMARK   84  A    between atoms: _216  and  _218
REMARK   85  A    between atoms: _218  and  _219
REMARK   86  A    between atoms: _222  and  _224
REMARK   87  A    between atoms: _224  and  _225
REMARK   88  A    between atoms: _228  and  _230
REMARK   89  A    between atoms: _230  and  _231
REMARK   90  A    between atoms: _230  and  _233
REMARK   91  A    between atoms: _233  and  _234
REMARK   92  A    between atoms: _237  and  _239
REMARK   93  A    between atoms: _239  and  _240
REMARK   94  A    between atoms: _239  and  _242
REMARK   95  A    between atoms: _242  and  _243
REMARK   96  A    between atoms: _243  and  _244
REMARK   97  A    between atoms: _249  and  _251
REMARK   98  A    between atoms: _251  and  _252
REMARK   99  A    between atoms: _251  and  _254
REMARK  100  A    between atoms: _254  and  _255
REMARK  101  A    between atoms: _258  and  _260
REMARK  102  A    between atoms: _260  and  _261
REMARK  103  A    between atoms: _260  and  _263
REMARK  104  A    between atoms: _263  and  _264
REMARK  105  A    between atoms: _267  and  _269
REMARK  106  A    between atoms: _269  and  _270
REMARK  107  A    between atoms: _269  and  _272
REMARK  108  A    between atoms: _272  and  _273
REMARK  109  A    between atoms: _276  and  _278
REMARK  110  A    between atoms: _278  and  _279
REMARK  111  A    between atoms: _278  and  _281
REMARK  112  A    between atoms: _281  and  _282
REMARK  113  A    between atoms: _284  and  _286
REMARK  114  A    between atoms: _286  and  _287
REMARK  115  A    between atoms: _286  and  _289
REMARK  116  A    between atoms: _292  and  _294
REMARK  117  A    between atoms: _294  and  _295
REMARK  118  A    between atoms: _294  and  _297
REMARK  119  A    between atoms: _297  and  _298
REMARK  120  A    between atoms: _298  and  _299
REMARK  121  A    between atoms: _299  and  _300
REMARK  122  A    between atoms: _300  and  _301
REMARK  123  A    between atoms: _305  and  _307
REMARK  124  A    between atoms: _307  and  _308
REMARK  125  A    between atoms: _307  and  _310
REMARK  126  A    between atoms: _310  and  _311
REMARK  127  A    between atoms: _322  and  _323
REMARK  128  A    between atoms: _328  and  _330
REMARK  129  A    between atoms: _330  and  _331
REMARK  130  A    between atoms: _330  and  _333
REMARK  131  A    between atoms: _333  and  _334
REMARK  132  A    between atoms: _339  and  _341
REMARK  133  A    between atoms: _341  and  _342
REMARK  134  A    between atoms: _341  and  _344
REMARK  135  A    between atoms: _344  and  _345
REMARK  136  A    between atoms: _348  and  _350
REMARK  137  A    between atoms: _350  and  _351
REMARK  138  A    between atoms: _350  and  _353
REMARK  139  A    between atoms: _356  and  _358
REMARK  140  A    between atoms: _358  and  _359
REMARK  141  A    between atoms: _361  and  _363
REMARK  142  A    between atoms: _363  and  _364
REMARK  143  A    between atoms: _363  and  _366
REMARK  144  A    between atoms: _366  and  _367
REMARK  145  A    between atoms: _367  and  _368
REMARK  146  A    between atoms: _368  and  _369
REMARK  147  A    between atoms: _369  and  _370
REMARK  148  A    between atoms: _374  and  _376
REMARK  149  A    between atoms: _376  and  _377
REMARK  150  A    between atoms: _376  and  _379
REMARK  151  A    between atoms: _379  and  _380
REMARK  152  A    between atoms: _383  and  _385
REMARK  153  A    between atoms: _385  and  _386
REMARK  154  A    between atoms: _389  and  _391
REMARK  155  A    between atoms: _391  and  _392
REMARK  156  A    between atoms: _394  and  _396
REMARK  157  A    between atoms: _396  and  _397
REMARK  158  A    between atoms: _396  and  _399
REMARK  159  A    between atoms: _399  and  _400
REMARK  160  A    between atoms: _403  and  _405
REMARK  161  A    between atoms: _405  and  _406
REMARK  162  A    between atoms: _405  and  _408
REMARK  163  A    between atoms: _408  and  _409
REMARK  164  A    between atoms: _412  and  _414
REMARK  165  A    between atoms: _414  and  _415
REMARK  166  A    between atoms: _418  and  _420
REMARK  167  A    between atoms: _420  and  _421
REMARK  168  A    between atoms: _420  and  _423
REMARK  169  A    between atoms: _423  and  _424
REMARK  170  A    between atoms: _424  and  _425
REMARK  171  A    between atoms: _428  and  _430
REMARK  172  A    between atoms: _430  and  _431
REMARK  173  A    between atoms: _430  and  _433
REMARK  174  A    between atoms: _436  and  _438
REMARK  175  A    between atoms: _438  and  _439
REMARK  176  A    between atoms: _438  and  _441
REMARK  177  A    between atoms: _441  and  _442
REMARK  178  A    between atoms: _445  and  _447
REMARK  179  A    between atoms: _447  and  _448
REMARK  180  A    between atoms: _450  and  _452
REMARK  181  A    between atoms: _452  and  _453
REMARK  182  A    between atoms: _452  and  _455
REMARK  183  A    between atoms: _458  and  _460
REMARK  184  A    between atoms: _460  and  _461
REMARK  185  A    between atoms: _463  and  _465
REMARK  186  A    between atoms: _465  and  _466
REMARK  187  A    between atoms: _465  and  _468
REMARK  188  A    between atoms: _468  and  _469
REMARK  189  A    between atoms: _472  and  _474
REMARK  190  A    between atoms: _474  and  _475
REMARK  191  A    between atoms: _474  and  _477
REMARK  192  A    between atoms: _477  and  _478
REMARK  193  A    between atoms: _483  and  _485
REMARK  194  A    between atoms: _485  and  _486
REMARK  195  A    between atoms: _485  and  _488
REMARK  196  A    between atoms: _491  and  _493
REMARK  197  A    between atoms: _493  and  _494
REMARK  198  A    between atoms: _493  and  _496
REMARK  199  A    between atoms: _496  and  _497
REMARK  200  A    between atoms: _497  and  _498
REMARK  201  A    between atoms: _503  and  _505
REMARK  202  A    between atoms: _505  and  _506
REMARK  203  A    between atoms: _510  and  _511
REMARK  204  A    between atoms: _516  and  _518
REMARK  205  A    between atoms: _518  and  _519
REMARK  206  A    between atoms: _518  and  _521
REMARK  207  A    between atoms: _521  and  _522
REMARK  208  A    between atoms: _522  and  _523
REMARK  209  A    between atoms: _526  and  _528
REMARK  210  A    between atoms: _528  and  _529
REMARK  211  A    between atoms: _528  and  _531
REMARK  212  A    between atoms: _534  and  _536
REMARK  213  A    between atoms: _536  and  _537
REMARK  214  A    between atoms: _536  and  _539
REMARK  215  A    between atoms: _539  and  _540
REMARK  216  A    between atoms: _544  and  _545
REMARK  217  A    between atoms: _550  and  _552
REMARK  218  A    between atoms: _552  and  _553
REMARK  219  A    between atoms: _552  and  _555
REMARK  220  A    between atoms: _555  and  _556
REMARK  221  A    between atoms: _559  and  _561
REMARK  222  A    between atoms: _561  and  _562
REMARK  223  A    between atoms: _565  and  _567
REMARK  224  A    between atoms: _567  and  _568
REMARK  225  A    between atoms: _567  and  _570
REMARK  226  A    between atoms: _570  and  _571
REMARK  227  A    between atoms: _574  and  _576
REMARK  228  A    between atoms: _576  and  _577
REMARK  229  A    between atoms: _576  and  _579
REMARK  230  A    between atoms: _579  and  _580
REMARK  231  A    between atoms: _582  and  _584
REMARK  232  A    between atoms: _584  and  _585
REMARK  233  A    between atoms: _587  and  _589
REMARK  234  A    between atoms: _589  and  _590
REMARK  235  A    between atoms: _589  and  _592
REMARK  236  A    between atoms: _592  and  _593
REMARK  237  A    between atoms: _596  and  _598
REMARK  238  A    between atoms: _598  and  _599
REMARK  239  A    between atoms: _598  and  _601
REMARK                            x       y       z     vdW  Elec       q    Type
REMARK                         _______ _______ _______ _____ _____    ______ ____
ROOT
ATOM      1  O   HOH     1       4.274  -2.237   3.338  0.00  0.00    +0.000 OA
ENDROOT
TORSDOF 0
REMARK  Name = ../refined-set-2016/3rux/3rux_pocket.pdb
REMARK  239 active torsions:
REMARK  status: ('A' for Active; 'I' for Inactive)
REMARK    1  A    between atoms: _1  and  _3
REMARK    2  A    between atoms: _3  and  _4
REMARK    3  A    between atoms: _3  and  _6
REMARK    4  A    between atoms: _6  and  _7
REMARK    5  A    between atoms: _10  and  _12
REMARK    6  A    between atoms: _12  and  _13
REMARK    7  A    between atoms: _15  and  _17
REMARK    8  A    between atoms: _17  and  _18
REMARK    9  A    between atoms: _17  and  _20
REMARK   10  A    between atoms: _20  and  _21
REMARK   11  A    between atoms: _23  and  _25
REMARK   12  A    between atoms: _25  and  _26
REMARK   13  A    between atoms: _25  and  _28
REMARK   14  A    between atoms: _28  and  _29
REMARK   15  A    between atoms: _32  and  _34
REMARK   16  A    between atoms: _34  and  _35
REMARK   17  A    between atoms: _34  and  _37
REMARK   18  A    between atoms: _37  and  _38
REMARK   19  A    between atoms: _43  and  _45
REMARK   20  A    between atoms: _45  and  _46
REMARK   21  A    between atoms: _49  and  _51
REMARK   22  A    between atoms: _51  and  _52
REMARK   23  A    between atoms: _51  and  _54
REMARK   24  A    between atoms: _54  and  _55
REMARK   25  A    between atoms: _58  and  _60
REMARK   26  A    between atoms: _60  and  _61
REMARK   27  A    between atoms: _60  and  _63
REMARK   28  A    between atoms: _63  and  _64
REMARK   29  A    between atoms: _67  and  _69
REMARK   30  A    between atoms: _69  and  _70
REMARK   31  A    between atoms: _69  and  _72
REMARK   32  A    between atoms: _72  and  _73
REMARK   33  A    between atoms: _76  and  _78
REMARK   34  A    between atoms: _78  and  _79
REMARK   35  A    between atoms: _78  and  _81
REMARK   36  A    between atoms: _81  and  _82
REMARK   37  A    between atoms: _85  and  _87
REMARK   38  A    between atoms: _87  and  _88
REMARK   39  A    between atoms: _91  and  _93
REMARK   40  A    between atoms: _93  and  _94
REMARK   41  A    between atoms: _93  and  _96
REMARK   42  A    between atoms: _96  and  _97
REMARK   43  A    between atoms: _97  and  _98
REMARK   44  A    between atoms: _103  and  _105
REMARK   45  A    between atoms: _105  and  _106
REMARK   46  A    between atoms: _105  and  _108
REMARK   47  A    between atoms: _108  and  _109
REMARK   48  A    between atoms: _112  and  _114
REMARK   49  A    between atoms: _114  and  _115
REMARK   50  A    between atoms: _118  and  _120
REMARK   51  A    between atoms: _120  and  _121
REMARK   52  A    between atoms: _123  and  _125
REMARK   53  A    between atoms: _125  and  _126
REMARK   54  A    between atoms: _125  and  _128
REMARK   55  A    between atoms: _128  and  _129
REMARK   56  A    between atoms: _129  and  _130
REMARK   57  A    between atoms: _130  and  _131
REMARK   58  A    between atoms: _140  and  _142
REMARK   59  A    between atoms: _142  and  _143
REMARK   60  A    between atoms: _145  and  _147
REMARK   61  A    between atoms: _147  and  _148
REMARK   62  A    between atoms: _147  and  _150
REMARK   63  A    between atoms: _150  and  _151
REMARK   64  A    between atoms: _151  and  _152
REMARK   65  A    between atoms: _152  and  _153
REMARK   66  A    between atoms: _162  and  _164
REMARK   67  A    between atoms: _164  and  _165
REMARK   68  A    between atoms: _164  and  _167
REMARK   69  A    between atoms: _167  and  _168
REMARK   70  A    between atoms: _173  and  _175
REMARK   71  A    between atoms: _175  and  _176
REMARK   72  A    between atoms: _178  and  _180
REMARK   73  A    between atoms: _180  and  _181
REMARK   74  A    between atoms: _180  and  _183
REMARK   75  A    between atoms: _183  and  _184
REMARK   76  A    between atoms: _184  and  _185
REMARK   77  A    between atoms: _185  and  _186
REMARK   78  A    between atoms: _195  and  _197
REMARK   79  A    between atoms: _197  and  _198
REMARK   80  A    between atoms: _200  and  _202
REMARK   81  A    between atoms: _202  and  _203
REMARK   82  A    between atoms: _202  and  _205
REMARK   83  A    between atoms: _205  and  _206
REMARK   84  A    between atoms: _216  and  _218
REMARK   85  A    between atoms: _218  and  _219
REMARK   86  A    between atoms: _222  and  _224
REMARK   87  A    between atoms: _224  and  _225
REMARK   88  A    between atoms: _228  and  _230
REMARK   89  A    between atoms: _230  and  _231
REMARK   90  A    between atoms: _230  and  _233
REMARK   91  A    between atoms: _233  and  _234
REMARK   92  A    between atoms: _237  and  _239
REMARK   93  A    between atoms: _239  and  _240
REMARK   94  A    between atoms: _239  and  _242
REMARK   95  A    between atoms: _242  and  _243
REMARK   96  A    between atoms: _243  and  _244
REMARK   97  A    between atoms: _249  and  _251
REMARK   98  A    between atoms: _251  and  _252
REMARK   99  A    between atoms: _251  and  _254
REMARK  100  A    between atoms: _254  and  _255
REMARK  101  A    between atoms: _258  and  _260
REMARK  102  A    between atoms: _260  and  _261
REMARK  103  A    between atoms: _260  and  _263
REMARK  104  A    between atoms: _263  and  _264
REMARK  105  A    between atoms: _267  and  _269
REMARK  106  A    between atoms: _269  and  _270
REMARK  107  A    between atoms: _269  and  _272
REMARK  108  A    between atoms: _272  and  _273
REMARK  109  A    between atoms: _276  and  _278
REMARK  110  A    between atoms: _278  and  _279
REMARK  111  A    between atoms: _278  and  _281
REMARK  112  A    between atoms: _281  and  _282
REMARK  113  A    between atoms: _284  and  _286
REMARK  114  A    between atoms: _286  and  _287
REMARK  115  A    between atoms: _286  and  _289
REMARK  116  A    between atoms: _292  and  _294
REMARK  117  A    between atoms: _294  and  _295
REMARK  118  A    between atoms: _294  and  _297
REMARK  119  A    between atoms: _297  and  _298
REMARK  120  A    between atoms: _298  and  _299
REMARK  121  A    between atoms: _299  and  _300
REMARK  122  A    between atoms: _300  and  _301
REMARK  123  A    between atoms: _305  and  _307
REMARK  124  A    between atoms: _307  and  _308
REMARK  125  A    between atoms: _307  and  _310
REMARK  126  A    between atoms: _310  and  _311
REMARK  127  A    between atoms: _322  and  _323
REMARK  128  A    between atoms: _328  and  _330
REMARK  129  A    between atoms: _330  and  _331
REMARK  130  A    between atoms: _330  and  _333
REMARK  131  A    between atoms: _333  and  _334
REMARK  132  A    between atoms: _339  and  _341
REMARK  133  A    between atoms: _341  and  _342
REMARK  134  A    between atoms: _341  and  _344
REMARK  135  A    between atoms: _344  and  _345
REMARK  136  A    between atoms: _348  and  _350
REMARK  137  A    between atoms: _350  and  _351
REMARK  138  A    between atoms: _350  and  _353
REMARK  139  A    between atoms: _356  and  _358
REMARK  140  A    between atoms: _358  and  _359
REMARK  141  A    between atoms: _361  and  _363
REMARK  142  A    between atoms: _363  and  _364
REMARK  143  A    between atoms: _363  and  _366
REMARK  144  A    between atoms: _366  and  _367
REMARK  145  A    between atoms: _367  and  _368
REMARK  146  A    between atoms: _368  and  _369
REMARK  147  A    between atoms: _369  and  _370
REMARK  148  A    between atoms: _374  and  _376
REMARK  149  A    between atoms: _376  and  _377
REMARK  150  A    between atoms: _376  and  _379
REMARK  151  A    between atoms: _379  and  _380
REMARK  152  A    between atoms: _383  and  _385
REMARK  153  A    between atoms: _385  and  _386
REMARK  154  A    between atoms: _389  and  _391
REMARK  155  A    between atoms: _391  and  _392
REMARK  156  A    between atoms: _394  and  _396
REMARK  157  A    between atoms: _396  and  _397
REMARK  158  A    between atoms: _396  and  _399
REMARK  159  A    between atoms: _399  and  _400
REMARK  160  A    between atoms: _403  and  _405
REMARK  161  A    between atoms: _405  and  _406
REMARK  162  A    between atoms: _405  and  _408
REMARK  163  A    between atoms: _408  and  _409
REMARK  164  A    between atoms: _412  and  _414
REMARK  165  A    between atoms: _414  and  _415
REMARK  166  A    between atoms: _418  and  _420
REMARK  167  A    between atoms: _420  and  _421
REMARK  168  A    between atoms: _420  and  _423
REMARK  169  A    between atoms: _423  and  _424
REMARK  170  A    between atoms: _424  and  _425
REMARK  171  A    between atoms: _428  and  _430
REMARK  172  A    between atoms: _430  and  _431
REMARK  173  A    between atoms: _430  and  _433
REMARK  174  A    between atoms: _436  and  _438
REMARK  175  A    between atoms: _438  and  _439
REMARK  176  A    between atoms: _438  and  _441
REMARK  177  A    between atoms: _441  and  _442
REMARK  178  A    between atoms: _445  and  _447
REMARK  179  A    between atoms: _447  and  _448
REMARK  180  A    between atoms: _450  and  _452
REMARK  181  A    between atoms: _452  and  _453
REMARK  182  A    between atoms: _452  and  _455
REMARK  183  A    between atoms: _458  and  _460
REMARK  184  A    between atoms: _460  and  _461
REMARK  185  A    between atoms: _463  and  _465
REMARK  186  A    between atoms: _465  and  _466
REMARK  187  A    between atoms: _465  and  _468
REMARK  188  A    between atoms: _468  and  _469
REMARK  189  A    between atoms: _472  and  _474
REMARK  190  A    between atoms: _474  and  _475
REMARK  191  A    between atoms: _474  and  _477
REMARK  192  A    between atoms: _477  and  _478
REMARK  193  A    between atoms: _483  and  _485
REMARK  194  A    between atoms: _485  and  _486
REMARK  195  A    between atoms: _485  and  _488
REMARK  196  A    between atoms: _491  and  _493
REMARK  197  A    between atoms: _493  and  _494
REMARK  198  A    between atoms: _493  and  _496
REMARK  199  A    between atoms: _496  and  _497
REMARK  200  A    between atoms: _497  and  _498
REMARK  201  A    between atoms: _503  and  _505
REMARK  202  A    between atoms: _505  and  _506
REMARK  203  A    between atoms: _510  and  _511
REMARK  204  A    between atoms: _516  and  _518
REMARK  205  A    between atoms: _518  and  _519
REMARK  206  A    between atoms: _518  and  _521
REMARK  207  A    between atoms: _521  and  _522
REMARK  208  A    between atoms: _522  and  _523
REMARK  209  A    between atoms: _526  and  _528
REMARK  210  A    between atoms: _528  and  _529
REMARK  211  A    between atoms: _528  and  _531
REMARK  212  A    between atoms: _534  and  _536
REMARK  213  A    between atoms: _536  and  _537
REMARK  214  A    between atoms: _536  and  _539
REMARK  215  A    between atoms: _539  and  _540
REMARK  216  A    between atoms: _544  and  _545
REMARK  217  A    between atoms: _550  and  _552
REMARK  218  A    between atoms: _552  and  _553
REMARK  219  A    between atoms: _552  and  _555
REMARK  220  A    between atoms: _555  and  _556
REMARK  221  A    between atoms: _559  and  _561
REMARK  222  A    between atoms: _561  and  _562
REMARK  223  A    between atoms: _565  and  _567
REMARK  224  A    between atoms: _567  and  _568
REMARK  225  A    between atoms: _567  and  _570
REMARK  226  A    between atoms: _570  and  _571
REMARK  227  A    between atoms: _574  and  _576
REMARK  228  A    between atoms: _576  and  _577
REMARK  229  A    between atoms: _576  and  _579
REMARK  230  A    between atoms: _579  and  _580
REMARK  231  A    between atoms: _582  and  _584
REMARK  232  A    between atoms: _584  and  _585
REMARK  233  A    between atoms: _587  and  _589
REMARK  234  A    between atoms: _589  and  _590
REMARK  235  A    between atoms: _589  and  _592
REMARK  236  A    between atoms: _592  and  _593
REMARK  237  A    between atoms: _596  and  _598
REMARK  238  A    between atoms: _598  and  _599
REMARK  239  A    between atoms: _598  and  _601
REMARK                            x       y       z     vdW  Elec       q    Type
REMARK                         _______ _______ _______ _____ _____    ______ ____
ROOT
ATOM      1  O   HOH     1      -6.350  -3.422   2.781  0.00  0.00    +0.000 OA
ENDROOT
TORSDOF 0
REMARK  Name = ../refined-set-2016/3rux/3rux_pocket.pdb
REMARK  239 active torsions:
REMARK  status: ('A' for Active; 'I' for Inactive)
REMARK    1  A    between atoms: _1  and  _3
REMARK    2  A    between atoms: _3  and  _4
REMARK    3  A    between atoms: _3  and  _6
REMARK    4  A    between atoms: _6  and  _7
REMARK    5  A    between atoms: _10  and  _12
REMARK    6  A    between atoms: _12  and  _13
REMARK    7  A    between atoms: _15  and  _17
REMARK    8  A    between atoms: _17  and  _18
REMARK    9  A    between atoms: _17  and  _20
REMARK   10  A    between atoms: _20  and  _21
REMARK   11  A    between atoms: _23  and  _25
REMARK   12  A    between atoms: _25  and  _26
REMARK   13  A    between atoms: _25  and  _28
REMARK   14  A    between atoms: _28  and  _29
REMARK   15  A    between atoms: _32  and  _34
REMARK   16  A    between atoms: _34  and  _35
REMARK   17  A    between atoms: _34  and  _37
REMARK   18  A    between atoms: _37  and  _38
REMARK   19  A    between atoms: _43  and  _45
REMARK   20  A    between atoms: _45  and  _46
REMARK   21  A    between atoms: _49  and  _51
REMARK   22  A    between atoms: _51  and  _52
REMARK   23  A    between atoms: _51  and  _54
REMARK   24  A    between atoms: _54  and  _55
REMARK   25  A    between atoms: _58  and  _60
REMARK   26  A    between atoms: _60  and  _61
REMARK   27  A    between atoms: _60  and  _63
REMARK   28  A    between atoms: _63  and  _64
REMARK   29  A    between atoms: _67  and  _69
REMARK   30  A    between atoms: _69  and  _70
REMARK   31  A    between atoms: _69  and  _72
REMARK   32  A    between atoms: _72  and  _73
REMARK   33  A    between atoms: _76  and  _78
REMARK   34  A    between atoms: _78  and  _79
REMARK   35  A    between atoms: _78  and  _81
REMARK   36  A    between atoms: _81  and  _82
REMARK   37  A    between atoms: _85  and  _87
REMARK   38  A    between atoms: _87  and  _88
REMARK   39  A    between atoms: _91  and  _93
REMARK   40  A    between atoms: _93  and  _94
REMARK   41  A    between atoms: _93  and  _96
REMARK   42  A    between atoms: _96  and  _97
REMARK   43  A    between atoms: _97  and  _98
REMARK   44  A    between atoms: _103  and  _105
REMARK   45  A    between atoms: _105  and  _106
REMARK   46  A    between atoms: _105  and  _108
REMARK   47  A    between atoms: _108  and  _109
REMARK   48  A    between atoms: _112  and  _114
REMARK   49  A    between atoms: _114  and  _115
REMARK   50  A    between atoms: _118  and  _120
REMARK   51  A    between atoms: _120  and  _121
REMARK   52  A    between atoms: _123  and  _125
REMARK   53  A    between atoms: _125  and  _126
REMARK   54  A    between atoms: _125  and  _128
REMARK   55  A    between atoms: _128  and  _129
REMARK   56  A    between atoms: _129  and  _130
REMARK   57  A    between atoms: _130  and  _131
REMARK   58  A    between atoms: _140  and  _142
REMARK   59  A    between atoms: _142  and  _143
REMARK   60  A    between atoms: _145  and  _147
REMARK   61  A    between atoms: _147  and  _148
REMARK   62  A    between atoms: _147  and  _150
REMARK   63  A    between atoms: _150  and  _151
REMARK   64  A    between atoms: _151  and  _152
REMARK   65  A    between atoms: _152  and  _153
REMARK   66  A    between atoms: _162  and  _164
REMARK   67  A    between atoms: _164  and  _165
REMARK   68  A    between atoms: _164  and  _167
REMARK   69  A    between atoms: _167  and  _168
REMARK   70  A    between atoms: _173  and  _175
REMARK   71  A    between atoms: _175  and  _176
REMARK   72  A    between atoms: _178  and  _180
REMARK   73  A    between atoms: _180  and  _181
REMARK   74  A    between atoms: _180  and  _183
REMARK   75  A    between atoms: _183  and  _184
REMARK   76  A    between atoms: _184  and  _185
REMARK   77  A    between atoms: _185  and  _186
REMARK   78  A    between atoms: _195  and  _197
REMARK   79  A    between atoms: _197  and  _198
REMARK   80  A    between atoms: _200  and  _202
REMARK   81  A    between atoms: _202  and  _203
REMARK   82  A    between atoms: _202  and  _205
REMARK   83  A    between atoms: _205  and  _206
REMARK   84  A    between atoms: _216  and  _218
REMARK   85  A    between atoms: _218  and  _219
REMARK   86  A    between atoms: _222  and  _224
REMARK   87  A    between atoms: _224  and  _225
REMARK   88  A    between atoms: _228  and  _230
REMARK   89  A    between atoms: _230  and  _231
REMARK   90  A    between atoms: _230  and  _233
REMARK   91  A    between atoms: _233  and  _234
REMARK   92  A    between atoms: _237  and  _239
REMARK   93  A    between atoms: _239  and  _240
REMARK   94  A    between atoms: _239  and  _242
REMARK   95  A    between atoms: _242  and  _243
REMARK   96  A    between atoms: _243  and  _244
REMARK   97  A    between atoms: _249  and  _251
REMARK   98  A    between atoms: _251  and  _252
REMARK   99  A    between atoms: _251  and  _254
REMARK  100  A    between atoms: _254  and  _255
REMARK  101  A    between atoms: _258  and  _260
REMARK  102  A    between atoms: _260  and  _261
REMARK  103  A    between atoms: _260  and  _263
REMARK  104  A    between atoms: _263  and  _264
REMARK  105  A    between atoms: _267  and  _269
REMARK  106  A    between atoms: _269  and  _270
REMARK  107  A    between atoms: _269  and  _272
REMARK  108  A    between atoms: _272  and  _273
REMARK  109  A    between atoms: _276  and  _278
REMARK  110  A    between atoms: _278  and  _279
REMARK  111  A    between atoms: _278  and  _281
REMARK  112  A    between atoms: _281  and  _282
REMARK  113  A    between atoms: _284  and  _286
REMARK  114  A    between atoms: _286  and  _287
REMARK  115  A    between atoms: _286  and  _289
REMARK  116  A    between atoms: _292  and  _294
REMARK  117  A    between atoms: _294  and  _295
REMARK  118  A    between atoms: _294  and  _297
REMARK  119  A    between atoms: _297  and  _298
REMARK  120  A    between atoms: _298  and  _299
REMARK  121  A    between atoms: _299  and  _300
REMARK  122  A    between atoms: _300  and  _301
REMARK  123  A    between atoms: _305  and  _307
REMARK  124  A    between atoms: _307  and  _308
REMARK  125  A    between atoms: _307  and  _310
REMARK  126  A    between atoms: _310  and  _311
REMARK  127  A    between atoms: _322  and  _323
REMARK  128  A    between atoms: _328  and  _330
REMARK  129  A    between atoms: _330  and  _331
REMARK  130  A    between atoms: _330  and  _333
REMARK  131  A    between atoms: _333  and  _334
REMARK  132  A    between atoms: _339  and  _341
REMARK  133  A    between atoms: _341  and  _342
REMARK  134  A    between atoms: _341  and  _344
REMARK  135  A    between atoms: _344  and  _345
REMARK  136  A    between atoms: _348  and  _350
REMARK  137  A    between atoms: _350  and  _351
REMARK  138  A    between atoms: _350  and  _353
REMARK  139  A    between atoms: _356  and  _358
REMARK  140  A    between atoms: _358  and  _359
REMARK  141  A    between atoms: _361  and  _363
REMARK  142  A    between atoms: _363  and  _364
REMARK  143  A    between atoms: _363  and  _366
REMARK  144  A    between atoms: _366  and  _367
REMARK  145  A    between atoms: _367  and  _368
REMARK  146  A    between atoms: _368  and  _369
REMARK  147  A    between atoms: _369  and  _370
REMARK  148  A    between atoms: _374  and  _376
REMARK  149  A    between atoms: _376  and  _377
REMARK  150  A    between atoms: _376  and  _379
REMARK  151  A    between atoms: _379  and  _380
REMARK  152  A    between atoms: _383  and  _385
REMARK  153  A    between atoms: _385  and  _386
REMARK  154  A    between atoms: _389  and  _391
REMARK  155  A    between atoms: _391  and  _392
REMARK  156  A    between atoms: _394  and  _396
REMARK  157  A    between atoms: _396  and  _397
REMARK  158  A    between atoms: _396  and  _399
REMARK  159  A    between atoms: _399  and  _400
REMARK  160  A    between atoms: _403  and  _405
REMARK  161  A    between atoms: _405  and  _406
REMARK  162  A    between atoms: _405  and  _408
REMARK  163  A    between atoms: _408  and  _409
REMARK  164  A    between atoms: _412  and  _414
REMARK  165  A    between atoms: _414  and  _415
REMARK  166  A    between atoms: _418  and  _420
REMARK  167  A    between atoms: _420  and  _421
REMARK  168  A    between atoms: _420  and  _423
REMARK  169  A    between atoms: _423  and  _424
REMARK  170  A    between atoms: _424  and  _425
REMARK  171  A    between atoms: _428  and  _430
REMARK  172  A    between atoms: _430  and  _431
REMARK  173  A    between atoms: _430  and  _433
REMARK  174  A    between atoms: _436  and  _438
REMARK  175  A    between atoms: _438  and  _439
REMARK  176  A    between atoms: _438  and  _441
REMARK  177  A    between atoms: _441  and  _442
REMARK  178  A    between atoms: _445  and  _447
REMARK  179  A    between atoms: _447  and  _448
REMARK  180  A    between atoms: _450  and  _452
REMARK  181  A    between atoms: _452  and  _453
REMARK  182  A    between atoms: _452  and  _455
REMARK  183  A    between atoms: _458  and  _460
REMARK  184  A    between atoms: _460  and  _461
REMARK  185  A    between atoms: _463  and  _465
REMARK  186  A    between atoms: _465  and  _466
REMARK  187  A    between atoms: _465  and  _468
REMARK  188  A    between atoms: _468  and  _469
REMARK  189  A    between atoms: _472  and  _474
REMARK  190  A    between atoms: _474  and  _475
REMARK  191  A    between atoms: _474  and  _477
REMARK  192  A    between atoms: _477  and  _478
REMARK  193  A    between atoms: _483  and  _485
REMARK  194  A    between atoms: _485  and  _486
REMARK  195  A    between atoms: _485  and  _488
REMARK  196  A    between atoms: _491  and  _493
REMARK  197  A    between atoms: _493  and  _494
REMARK  198  A    between atoms: _493  and  _496
REMARK  199  A    between atoms: _496  and  _497
REMARK  200  A    between atoms: _497  and  _498
REMARK  201  A    between atoms: _503  and  _505
REMARK  202  A    between atoms: _505  and  _506
REMARK  203  A    between atoms: _510  and  _511
REMARK  204  A    between atoms: _516  and  _518
REMARK  205  A    between atoms: _518  and  _519
REMARK  206  A    between atoms: _518  and  _521
REMARK  207  A    between atoms: _521  and  _522
REMARK  208  A    between atoms: _522  and  _523
REMARK  209  A    between atoms: _526  and  _528
REMARK  210  A    between atoms: _528  and  _529
REMARK  211  A    between atoms: _528  and  _531
REMARK  212  A    between atoms: _534  and  _536
REMARK  213  A    between atoms: _536  and  _537
REMARK  214  A    between atoms: _536  and  _539
REMARK  215  A    between atoms: _539  and  _540
REMARK  216  A    between atoms: _544  and  _545
REMARK  217  A    between atoms: _550  and  _552
REMARK  218  A    between atoms: _552  and  _553
REMARK  219  A    between atoms: _552  and  _555
REMARK  220  A    between atoms: _555  and  _556
REMARK  221  A    between atoms: _559  and  _561
REMARK  222  A    between atoms: _561  and  _562
REMARK  223  A    between atoms: _565  and  _567
REMARK  224  A    between atoms: _567  and  _568
REMARK  225  A    between atoms: _567  and  _570
REMARK  226  A    between atoms: _570  and  _571
REMARK  227  A    between atoms: _574  and  _576
REMARK  228  A    between atoms: _576  and  _577
REMARK  229  A    between atoms: _576  and  _579
REMARK  230  A    between atoms: _579  and  _580
REMARK  231  A    between atoms: _582  and  _584
REMARK  232  A    between atoms: _584  and  _585
REMARK  233  A    between atoms: _587  and  _589
REMARK  234  A    between atoms: _589  and  _590
REMARK  235  A    between atoms: _589  and  _592
REMARK  236  A    between atoms: _592  and  _593
REMARK  237  A    between atoms: _596  and  _598
REMARK  238  A    between atoms: _598  and  _599
REMARK  239  A    between atoms: _598  and  _601
REMARK                            x       y       z     vdW  Elec       q    Type
REMARK                         _______ _______ _______ _____ _____    ______ ____
ROOT
ATOM      1  O   HOH     1      -8.401   0.857   8.964  0.00  0.00    +0.000 OA
ENDROOT
TORSDOF 0
REMARK  Name = ../refined-set-2016/3rux/3rux_pocket.pdb
REMARK  239 active torsions:
REMARK  status: ('A' for Active; 'I' for Inactive)
REMARK    1  A    between atoms: _1  and  _3
REMARK    2  A    between atoms: _3  and  _4
REMARK    3  A    between atoms: _3  and  _6
REMARK    4  A    between atoms: _6  and  _7
REMARK    5  A    between atoms: _10  and  _12
REMARK    6  A    between atoms: _12  and  _13
REMARK    7  A    between atoms: _15  and  _17
REMARK    8  A    between atoms: _17  and  _18
REMARK    9  A    between atoms: _17  and  _20
REMARK   10  A    between atoms: _20  and  _21
REMARK   11  A    between atoms: _23  and  _25
REMARK   12  A    between atoms: _25  and  _26
REMARK   13  A    between atoms: _25  and  _28
REMARK   14  A    between atoms: _28  and  _29
REMARK   15  A    between atoms: _32  and  _34
REMARK   16  A    between atoms: _34  and  _35
REMARK   17  A    between atoms: _34  and  _37
REMARK   18  A    between atoms: _37  and  _38
REMARK   19  A    between atoms: _43  and  _45
REMARK   20  A    between atoms: _45  and  _46
REMARK   21  A    between atoms: _49  and  _51
REMARK   22  A    between atoms: _51  and  _52
REMARK   23  A    between atoms: _51  and  _54
REMARK   24  A    between atoms: _54  and  _55
REMARK   25  A    between atoms: _58  and  _60
REMARK   26  A    between atoms: _60  and  _61
REMARK   27  A    between atoms: _60  and  _63
REMARK   28  A    between atoms: _63  and  _64
REMARK   29  A    between atoms: _67  and  _69
REMARK   30  A    between atoms: _69  and  _70
REMARK   31  A    between atoms: _69  and  _72
REMARK   32  A    between atoms: _72  and  _73
REMARK   33  A    between atoms: _76  and  _78
REMARK   34  A    between atoms: _78  and  _79
REMARK   35  A    between atoms: _78  and  _81
REMARK   36  A    between atoms: _81  and  _82
REMARK   37  A    between atoms: _85  and  _87
REMARK   38  A    between atoms: _87  and  _88
REMARK   39  A    between atoms: _91  and  _93
REMARK   40  A    between atoms: _93  and  _94
REMARK   41  A    between atoms: _93  and  _96
REMARK   42  A    between atoms: _96  and  _97
REMARK   43  A    between atoms: _97  and  _98
REMARK   44  A    between atoms: _103  and  _105
REMARK   45  A    between atoms: _105  and  _106
REMARK   46  A    between atoms: _105  and  _108
REMARK   47  A    between atoms: _108  and  _109
REMARK   48  A    between atoms: _112  and  _114
REMARK   49  A    between atoms: _114  and  _115
REMARK   50  A    between atoms: _118  and  _120
REMARK   51  A    between atoms: _120  and  _121
REMARK   52  A    between atoms: _123  and  _125
REMARK   53  A    between atoms: _125  and  _126
REMARK   54  A    between atoms: _125  and  _128
REMARK   55  A    between atoms: _128  and  _129
REMARK   56  A    between atoms: _129  and  _130
REMARK   57  A    between atoms: _130  and  _131
REMARK   58  A    between atoms: _140  and  _142
REMARK   59  A    between atoms: _142  and  _143
REMARK   60  A    between atoms: _145  and  _147
REMARK   61  A    between atoms: _147  and  _148
REMARK   62  A    between atoms: _147  and  _150
REMARK   63  A    between atoms: _150  and  _151
REMARK   64  A    between atoms: _151  and  _152
REMARK   65  A    between atoms: _152  and  _153
REMARK   66  A    between atoms: _162  and  _164
REMARK   67  A    between atoms: _164  and  _165
REMARK   68  A    between atoms: _164  and  _167
REMARK   69  A    between atoms: _167  and  _168
REMARK   70  A    between atoms: _173  and  _175
REMARK   71  A    between atoms: _175  and  _176
REMARK   72  A    between atoms: _178  and  _180
REMARK   73  A    between atoms: _180  and  _181
REMARK   74  A    between atoms: _180  and  _183
REMARK   75  A    between atoms: _183  and  _184
REMARK   76  A    between atoms: _184  and  _185
REMARK   77  A    between atoms: _185  and  _186
REMARK   78  A    between atoms: _195  and  _197
REMARK   79  A    between atoms: _197  and  _198
REMARK   80  A    between atoms: _200  and  _202
REMARK   81  A    between atoms: _202  and  _203
REMARK   82  A    between atoms: _202  and  _205
REMARK   83  A    between atoms: _205  and  _206
REMARK   84  A    between atoms: _216  and  _218
REMARK   85  A    between atoms: _218  and  _219
REMARK   86  A    between atoms: _222  and  _224
REMARK   87  A    between atoms: _224  and  _225
REMARK   88  A    between atoms: _228  and  _230
REMARK   89  A    between atoms: _230  and  _231
REMARK   90  A    between atoms: _230  and  _233
REMARK   91  A    between atoms: _233  and  _234
REMARK   92  A    between atoms: _237  and  _239
REMARK   93  A    between atoms: _239  and  _240
REMARK   94  A    between atoms: _239  and  _242
REMARK   95  A    between atoms: _242  and  _243
REMARK   96  A    between atoms: _243  and  _244
REMARK   97  A    between atoms: _249  and  _251
REMARK   98  A    between atoms: _251  and  _252
REMARK   99  A    between atoms: _251  and  _254
REMARK  100  A    between atoms: _254  and  _255
REMARK  101  A    between atoms: _258  and  _260
REMARK  102  A    between atoms: _260  and  _261
REMARK  103  A    between atoms: _260  and  _263
REMARK  104  A    between atoms: _263  and  _264
REMARK  105  A    between atoms: _267  and  _269
REMARK  106  A    between atoms: _269  and  _270
REMARK  107  A    between atoms: _269  and  _272
REMARK  108  A    between atoms: _272  and  _273
REMARK  109  A    between atoms: _276  and  _278
REMARK  110  A    between atoms: _278  and  _279
REMARK  111  A    between atoms: _278  and  _281
REMARK  112  A    between atoms: _281  and  _282
REMARK  113  A    between atoms: _284  and  _286
REMARK  114  A    between atoms: _286  and  _287
REMARK  115  A    between atoms: _286  and  _289
REMARK  116  A    between atoms: _292  and  _294
REMARK  117  A    between atoms: _294  and  _295
REMARK  118  A    between atoms: _294  and  _297
REMARK  119  A    between atoms: _297  and  _298
REMARK  120  A    between atoms: _298  and  _299
REMARK  121  A    between atoms: _299  and  _300
REMARK  122  A    between atoms: _300  and  _301
REMARK  123  A    between atoms: _305  and  _307
REMARK  124  A    between atoms: _307  and  _308
REMARK  125  A    between atoms: _307  and  _310
REMARK  126  A    between atoms: _310  and  _311
REMARK  127  A    between atoms: _322  and  _323
REMARK  128  A    between atoms: _328  and  _330
REMARK  129  A    between atoms: _330  and  _331
REMARK  130  A    between atoms: _330  and  _333
REMARK  131  A    between atoms: _333  and  _334
REMARK  132  A    between atoms: _339  and  _341
REMARK  133  A    between atoms: _341  and  _342
REMARK  134  A    between atoms: _341  and  _344
REMARK  135  A    between atoms: _344  and  _345
REMARK  136  A    between atoms: _348  and  _350
REMARK  137  A    between atoms: _350  and  _351
REMARK  138  A    between atoms: _350  and  _353
REMARK  139  A    between atoms: _356  and  _358
REMARK  140  A    between atoms: _358  and  _359
REMARK  141  A    between atoms: _361  and  _363
REMARK  142  A    between atoms: _363  and  _364
REMARK  143  A    between atoms: _363  and  _366
REMARK  144  A    between atoms: _366  and  _367
REMARK  145  A    between atoms: _367  and  _368
REMARK  146  A    between atoms: _368  and  _369
REMARK  147  A    between atoms: _369  and  _370
REMARK  148  A    between atoms: _374  and  _376
REMARK  149  A    between atoms: _376  and  _377
REMARK  150  A    between atoms: _376  and  _379
REMARK  151  A    between atoms: _379  and  _380
REMARK  152  A    between atoms: _383  and  _385
REMARK  153  A    between atoms: _385  and  _386
REMARK  154  A    between atoms: _389  and  _391
REMARK  155  A    between atoms: _391  and  _392
REMARK  156  A    between atoms: _394  and  _396
REMARK  157  A    between atoms: _396  and  _397
REMARK  158  A    between atoms: _396  and  _399
REMARK  159  A    between atoms: _399  and  _400
REMARK  160  A    between atoms: _403  and  _405
REMARK  161  A    between atoms: _405  and  _406
REMARK  162  A    between atoms: _405  and  _408
REMARK  163  A    between atoms: _408  and  _409
REMARK  164  A    between atoms: _412  and  _414
REMARK  165  A    between atoms: _414  and  _415
REMARK  166  A    between atoms: _418  and  _420
REMARK  167  A    between atoms: _420  and  _421
REMARK  168  A    between atoms: _420  and  _423
REMARK  169  A    between atoms: _423  and  _424
REMARK  170  A    between atoms: _424  and  _425
REMARK  171  A    between atoms: _428  and  _430
REMARK  172  A    between atoms: _430  and  _431
REMARK  173  A    between atoms: _430  and  _433
REMARK  174  A    between atoms: _436  and  _438
REMARK  175  A    between atoms: _438  and  _439
REMARK  176  A    between atoms: _438  and  _441
REMARK  177  A    between atoms: _441  and  _442
REMARK  178  A    between atoms: _445  and  _447
REMARK  179  A    between atoms: _447  and  _448
REMARK  180  A    between atoms: _450  and  _452
REMARK  181  A    between atoms: _452  and  _453
REMARK  182  A    between atoms: _452  and  _455
REMARK  183  A    between atoms: _458  and  _460
REMARK  184  A    between atoms: _460  and  _461
REMARK  185  A    between atoms: _463  and  _465
REMARK  186  A    between atoms: _465  and  _466
REMARK  187  A    between atoms: _465  and  _468
REMARK  188  A    between atoms: _468  and  _469
REMARK  189  A    between atoms: _472  and  _474
REMARK  190  A    between atoms: _474  and  _475
REMARK  191  A    between atoms: _474  and  _477
REMARK  192  A    between atoms: _477  and  _478
REMARK  193  A    between atoms: _483  and  _485
REMARK  194  A    between atoms: _485  and  _486
REMARK  195  A    between atoms: _485  and  _488
REMARK  196  A    between atoms: _491  and  _493
REMARK  197  A    between atoms: _493  and  _494
REMARK  198  A    between atoms: _493  and  _496
REMARK  199  A    between atoms: _496  and  _497
REMARK  200  A    between atoms: _497  and  _498
REMARK  201  A    between atoms: _503  and  _505
REMARK  202  A    between atoms: _505  and  _506
REMARK  203  A    between atoms: _510  and  _511
REMARK  204  A    between atoms: _516  and  _518
REMARK  205  A    between atoms: _518  and  _519
REMARK  206  A    between atoms: _518  and  _521
REMARK  207  A    between atoms: _521  and  _522
REMARK  208  A    between atoms: _522  and  _523
REMARK  209  A    between atoms: _526  and  _528
REMARK  210  A    between atoms: _528  and  _529
REMARK  211  A    between atoms: _528  and  _531
REMARK  212  A    between atoms: _534  and  _536
REMARK  213  A    between atoms: _536  and  _537
REMARK  214  A    between atoms: _536  and  _539
REMARK  215  A    between atoms: _539  and  _540
REMARK  216  A    between atoms: _544  and  _545
REMARK  217  A    between atoms: _550  and  _552
REMARK  218  A    between atoms: _552  and  _553
REMARK  219  A    between atoms: _552  and  _555
REMARK  220  A    between atoms: _555  and  _556
REMARK  221  A    between atoms: _559  and  _561
REMARK  222  A    between atoms: _561  and  _562
REMARK  223  A    between atoms: _565  and  _567
REMARK  224  A    between atoms: _567  and  _568
REMARK  225  A    between atoms: _567  and  _570
REMARK  226  A    between atoms: _570  and  _571
REMARK  227  A    between atoms: _574  and  _576
REMARK  228  A    between atoms: _576  and  _577
REMARK  229  A    between atoms: _576  and  _579
REMARK  230  A    between atoms: _579  and  _580
REMARK  231  A    between atoms: _582  and  _584
REMARK  232  A    between atoms: _584  and  _585
REMARK  233  A    between atoms: _587  and  _589
REMARK  234  A    between atoms: _589  and  _590
REMARK  235  A    between atoms: _589  and  _592
REMARK  236  A    between atoms: _592  and  _593
REMARK  237  A    between atoms: _596  and  _598
REMARK  238  A    between atoms: _598  and  _599
REMARK  239  A    between atoms: _598  and  _601
REMARK                            x       y       z     vdW  Elec       q    Type
REMARK                         _______ _______ _______ _____ _____    ______ ____
ROOT
ATOM      1  O   HOH     1       1.009  -0.789  18.770  0.00  0.00    +0.000 OA
ENDROOT
TORSDOF 0
REMARK  Name = ../refined-set-2016/3rux/3rux_pocket.pdb
REMARK  239 active torsions:
REMARK  status: ('A' for Active; 'I' for Inactive)
REMARK    1  A    between atoms: _1  and  _3
REMARK    2  A    between atoms: _3  and  _4
REMARK    3  A    between atoms: _3  and  _6
REMARK    4  A    between atoms: _6  and  _7
REMARK    5  A    between atoms: _10  and  _12
REMARK    6  A    between atoms: _12  and  _13
REMARK    7  A    between atoms: _15  and  _17
REMARK    8  A    between atoms: _17  and  _18
REMARK    9  A    between atoms: _17  and  _20
REMARK   10  A    between atoms: _20  and  _21
REMARK   11  A    between atoms: _23  and  _25
REMARK   12  A    between atoms: _25  and  _26
REMARK   13  A    between atoms: _25  and  _28
REMARK   14  A    between atoms: _28  and  _29
REMARK   15  A    between atoms: _32  and  _34
REMARK   16  A    between atoms: _34  and  _35
REMARK   17  A    between atoms: _34  and  _37
REMARK   18  A    between atoms: _37  and  _38
REMARK   19  A    between atoms: _43  and  _45
REMARK   20  A    between atoms: _45  and  _46
REMARK   21  A    between atoms: _49  and  _51
REMARK   22  A    between atoms: _51  and  _52
REMARK   23  A    between atoms: _51  and  _54
REMARK   24  A    between atoms: _54  and  _55
REMARK   25  A    between atoms: _58  and  _60
REMARK   26  A    between atoms: _60  and  _61
REMARK   27  A    between atoms: _60  and  _63
REMARK   28  A    between atoms: _63  and  _64
REMARK   29  A    between atoms: _67  and  _69
REMARK   30  A    between atoms: _69  and  _70
REMARK   31  A    between atoms: _69  and  _72
REMARK   32  A    between atoms: _72  and  _73
REMARK   33  A    between atoms: _76  and  _78
REMARK   34  A    between atoms: _78  and  _79
REMARK   35  A    between atoms: _78  and  _81
REMARK   36  A    between atoms: _81  and  _82
REMARK   37  A    between atoms: _85  and  _87
REMARK   38  A    between atoms: _87  and  _88
REMARK   39  A    between atoms: _91  and  _93
REMARK   40  A    between atoms: _93  and  _94
REMARK   41  A    between atoms: _93  and  _96
REMARK   42  A    between atoms: _96  and  _97
REMARK   43  A    between atoms: _97  and  _98
REMARK   44  A    between atoms: _103  and  _105
REMARK   45  A    between atoms: _105  and  _106
REMARK   46  A    between atoms: _105  and  _108
REMARK   47  A    between atoms: _108  and  _109
REMARK   48  A    between atoms: _112  and  _114
REMARK   49  A    between atoms: _114  and  _115
REMARK   50  A    between atoms: _118  and  _120
REMARK   51  A    between atoms: _120  and  _121
REMARK   52  A    between atoms: _123  and  _125
REMARK   53  A    between atoms: _125  and  _126
REMARK   54  A    between atoms: _125  and  _128
REMARK   55  A    between atoms: _128  and  _129
REMARK   56  A    between atoms: _129  and  _130
REMARK   57  A    between atoms: _130  and  _131
REMARK   58  A    between atoms: _140  and  _142
REMARK   59  A    between atoms: _142  and  _143
REMARK   60  A    between atoms: _145  and  _147
REMARK   61  A    between atoms: _147  and  _148
REMARK   62  A    between atoms: _147  and  _150
REMARK   63  A    between atoms: _150  and  _151
REMARK   64  A    between atoms: _151  and  _152
REMARK   65  A    between atoms: _152  and  _153
REMARK   66  A    between atoms: _162  and  _164
REMARK   67  A    between atoms: _164  and  _165
REMARK   68  A    between atoms: _164  and  _167
REMARK   69  A    between atoms: _167  and  _168
REMARK   70  A    between atoms: _173  and  _175
REMARK   71  A    between atoms: _175  and  _176
REMARK   72  A    between atoms: _178  and  _180
REMARK   73  A    between atoms: _180  and  _181
REMARK   74  A    between atoms: _180  and  _183
REMARK   75  A    between atoms: _183  and  _184
REMARK   76  A    between atoms: _184  and  _185
REMARK   77  A    between atoms: _185  and  _186
REMARK   78  A    between atoms: _195  and  _197
REMARK   79  A    between atoms: _197  and  _198
REMARK   80  A    between atoms: _200  and  _202
REMARK   81  A    between atoms: _202  and  _203
REMARK   82  A    between atoms: _202  and  _205
REMARK   83  A    between atoms: _205  and  _206
REMARK   84  A    between atoms: _216  and  _218
REMARK   85  A    between atoms: _218  and  _219
REMARK   86  A    between atoms: _222  and  _224
REMARK   87  A    between atoms: _224  and  _225
REMARK   88  A    between atoms: _228  and  _230
REMARK   89  A    between atoms: _230  and  _231
REMARK   90  A    between atoms: _230  and  _233
REMARK   91  A    between atoms: _233  and  _234
REMARK   92  A    between atoms: _237  and  _239
REMARK   93  A    between atoms: _239  and  _240
REMARK   94  A    between atoms: _239  and  _242
REMARK   95  A    between atoms: _242  and  _243
REMARK   96  A    between atoms: _243  and  _244
REMARK   97  A    between atoms: _249  and  _251
REMARK   98  A    between atoms: _251  and  _252
REMARK   99  A    between atoms: _251  and  _254
REMARK  100  A    between atoms: _254  and  _255
REMARK  101  A    between atoms: _258  and  _260
REMARK  102  A    between atoms: _260  and  _261
REMARK  103  A    between atoms: _260  and  _263
REMARK  104  A    between atoms: _263  and  _264
REMARK  105  A    between atoms: _267  and  _269
REMARK  106  A    between atoms: _269  and  _270
REMARK  107  A    between atoms: _269  and  _272
REMARK  108  A    between atoms: _272  and  _273
REMARK  109  A    between atoms: _276  and  _278
REMARK  110  A    between atoms: _278  and  _279
REMARK  111  A    between atoms: _278  and  _281
REMARK  112  A    between atoms: _281  and  _282
REMARK  113  A    between atoms: _284  and  _286
REMARK  114  A    between atoms: _286  and  _287
REMARK  115  A    between atoms: _286  and  _289
REMARK  116  A    between atoms: _292  and  _294
REMARK  117  A    between atoms: _294  and  _295
REMARK  118  A    between atoms: _294  and  _297
REMARK  119  A    between atoms: _297  and  _298
REMARK  120  A    between atoms: _298  and  _299
REMARK  121  A    between atoms: _299  and  _300
REMARK  122  A    between atoms: _300  and  _301
REMARK  123  A    between atoms: _305  and  _307
REMARK  124  A    between atoms: _307  and  _308
REMARK  125  A    between atoms: _307  and  _310
REMARK  126  A    between atoms: _310  and  _311
REMARK  127  A    between atoms: _322  and  _323
REMARK  128  A    between atoms: _328  and  _330
REMARK  129  A    between atoms: _330  and  _331
REMARK  130  A    between atoms: _330  and  _333
REMARK  131  A    between atoms: _333  and  _334
REMARK  132  A    between atoms: _339  and  _341
REMARK  133  A    between atoms: _341  and  _342
REMARK  134  A    between atoms: _341  and  _344
REMARK  135  A    between atoms: _344  and  _345
REMARK  136  A    between atoms: _348  and  _350
REMARK  137  A    between atoms: _350  and  _351
REMARK  138  A    between atoms: _350  and  _353
REMARK  139  A    between atoms: _356  and  _358
REMARK  140  A    between atoms: _358  and  _359
REMARK  141  A    between atoms: _361  and  _363
REMARK  142  A    between atoms: _363  and  _364
REMARK  143  A    between atoms: _363  and  _366
REMARK  144  A    between atoms: _366  and  _367
REMARK  145  A    between atoms: _367  and  _368
REMARK  146  A    between atoms: _368  and  _369
REMARK  147  A    between atoms: _369  and  _370
REMARK  148  A    between atoms: _374  and  _376
REMARK  149  A    between atoms: _376  and  _377
REMARK  150  A    between atoms: _376  and  _379
REMARK  151  A    between atoms: _379  and  _380
REMARK  152  A    between atoms: _383  and  _385
REMARK  153  A    between atoms: _385  and  _386
REMARK  154  A    between atoms: _389  and  _391
REMARK  155  A    between atoms: _391  and  _392
REMARK  156  A    between atoms: _394  and  _396
REMARK  157  A    between atoms: _396  and  _397
REMARK  158  A    between atoms: _396  and  _399
REMARK  159  A    between atoms: _399  and  _400
REMARK  160  A    between atoms: _403  and  _405
REMARK  161  A    between atoms: _405  and  _406
REMARK  162  A    between atoms: _405  and  _408
REMARK  163  A    between atoms: _408  and  _409
REMARK  164  A    between atoms: _412  and  _414
REMARK  165  A    between atoms: _414  and  _415
REMARK  166  A    between atoms: _418  and  _420
REMARK  167  A    between atoms: _420  and  _421
REMARK  168  A    between atoms: _420  and  _423
REMARK  169  A    between atoms: _423  and  _424
REMARK  170  A    between atoms: _424  and  _425
REMARK  171  A    between atoms: _428  and  _430
REMARK  172  A    between atoms: _430  and  _431
REMARK  173  A    between atoms: _430  and  _433
REMARK  174  A    between atoms: _436  and  _438
REMARK  175  A    between atoms: _438  and  _439
REMARK  176  A    between atoms: _438  and  _441
REMARK  177  A    between atoms: _441  and  _442
REMARK  178  A    between atoms: _445  and  _447
REMARK  179  A    between atoms: _447  and  _448
REMARK  180  A    between atoms: _450  and  _452
REMARK  181  A    between atoms: _452  and  _453
REMARK  182  A    between atoms: _452  and  _455
REMARK  183  A    between atoms: _458  and  _460
REMARK  184  A    between atoms: _460  and  _461
REMARK  185  A    between atoms: _463  and  _465
REMARK  186  A    between atoms: _465  and  _466
REMARK  187  A    between atoms: _465  and  _468
REMARK  188  A    between atoms: _468  and  _469
REMARK  189  A    between atoms: _472  and  _474
REMARK  190  A    between atoms: _474  and  _475
REMARK  191  A    between atoms: _474  and  _477
REMARK  192  A    between atoms: _477  and  _478
REMARK  193  A    between atoms: _483  and  _485
REMARK  194  A    between atoms: _485  and  _486
REMARK  195  A    between atoms: _485  and  _488
REMARK  196  A    between atoms: _491  and  _493
REMARK  197  A    between atoms: _493  and  _494
REMARK  198  A    between atoms: _493  and  _496
REMARK  199  A    between atoms: _496  and  _497
REMARK  200  A    between atoms: _497  and  _498
REMARK  201  A    between atoms: _503  and  _505
REMARK  202  A    between atoms: _505  and  _506
REMARK  203  A    between atoms: _510  and  _511
REMARK  204  A    between atoms: _516  and  _518
REMARK  205  A    between atoms: _518  and  _519
REMARK  206  A    between atoms: _518  and  _521
REMARK  207  A    between atoms: _521  and  _522
REMARK  208  A    between atoms: _522  and  _523
REMARK  209  A    between atoms: _526  and  _528
REMARK  210  A    between atoms: _528  and  _529
REMARK  211  A    between atoms: _528  and  _531
REMARK  212  A    between atoms: _534  and  _536
REMARK  213  A    between atoms: _536  and  _537
REMARK  214  A    between atoms: _536  and  _539
REMARK  215  A    between atoms: _539  and  _540
REMARK  216  A    between atoms: _544  and  _545
REMARK  217  A    between atoms: _550  and  _552
REMARK  218  A    between atoms: _552  and  _553
REMARK  219  A    between atoms: _552  and  _555
REMARK  220  A    between atoms: _555  and  _556
REMARK  221  A    between atoms: _559  and  _561
REMARK  222  A    between atoms: _561  and  _562
REMARK  223  A    between atoms: _565  and  _567
REMARK  224  A    between atoms: _567  and  _568
REMARK  225  A    between atoms: _567  and  _570
REMARK  226  A    between atoms: _570  and  _571
REMARK  227  A    between atoms: _574  and  _576
REMARK  228  A    between atoms: _576  and  _577
REMARK  229  A    between atoms: _576  and  _579
REMARK  230  A    between atoms: _579  and  _580
REMARK  231  A    between atoms: _582  and  _584
REMARK  232  A    between atoms: _584  and  _585
REMARK  233  A    between atoms: _587  and  _589
REMARK  234  A    between atoms: _589  and  _590
REMARK  235  A    between atoms: _589  and  _592
REMARK  236  A    between atoms: _592  and  _593
REMARK  237  A    between atoms: _596  and  _598
REMARK  238  A    between atoms: _598  and  _599
REMARK  239  A    between atoms: _598  and  _601
REMARK                            x       y       z     vdW  Elec       q    Type
REMARK                         _______ _______ _______ _____ _____    ______ ____
ROOT
ATOM      1  O   HOH     1       2.140  -1.852  16.630  0.00  0.00    +0.000 OA
ENDROOT
TORSDOF 0
REMARK  Name = ../refined-set-2016/3rux/3rux_pocket.pdb
REMARK  239 active torsions:
REMARK  status: ('A' for Active; 'I' for Inactive)
REMARK    1  A    between atoms: _1  and  _3
REMARK    2  A    between atoms: _3  and  _4
REMARK    3  A    between atoms: _3  and  _6
REMARK    4  A    between atoms: _6  and  _7
REMARK    5  A    between atoms: _10  and  _12
REMARK    6  A    between atoms: _12  and  _13
REMARK    7  A    between atoms: _15  and  _17
REMARK    8  A    between atoms: _17  and  _18
REMARK    9  A    between atoms: _17  and  _20
REMARK   10  A    between atoms: _20  and  _21
REMARK   11  A    between atoms: _23  and  _25
REMARK   12  A    between atoms: _25  and  _26
REMARK   13  A    between atoms: _25  and  _28
REMARK   14  A    between atoms: _28  and  _29
REMARK   15  A    between atoms: _32  and  _34
REMARK   16  A    between atoms: _34  and  _35
REMARK   17  A    between atoms: _34  and  _37
REMARK   18  A    between atoms: _37  and  _38
REMARK   19  A    between atoms: _43  and  _45
REMARK   20  A    between atoms: _45  and  _46
REMARK   21  A    between atoms: _49  and  _51
REMARK   22  A    between atoms: _51  and  _52
REMARK   23  A    between atoms: _51  and  _54
REMARK   24  A    between atoms: _54  and  _55
REMARK   25  A    between atoms: _58  and  _60
REMARK   26  A    between atoms: _60  and  _61
REMARK   27  A    between atoms: _60  and  _63
REMARK   28  A    between atoms: _63  and  _64
REMARK   29  A    between atoms: _67  and  _69
REMARK   30  A    between atoms: _69  and  _70
REMARK   31  A    between atoms: _69  and  _72
REMARK   32  A    between atoms: _72  and  _73
REMARK   33  A    between atoms: _76  and  _78
REMARK   34  A    between atoms: _78  and  _79
REMARK   35  A    between atoms: _78  and  _81
REMARK   36  A    between atoms: _81  and  _82
REMARK   37  A    between atoms: _85  and  _87
REMARK   38  A    between atoms: _87  and  _88
REMARK   39  A    between atoms: _91  and  _93
REMARK   40  A    between atoms: _93  and  _94
REMARK   41  A    between atoms: _93  and  _96
REMARK   42  A    between atoms: _96  and  _97
REMARK   43  A    between atoms: _97  and  _98
REMARK   44  A    between atoms: _103  and  _105
REMARK   45  A    between atoms: _105  and  _106
REMARK   46  A    between atoms: _105  and  _108
REMARK   47  A    between atoms: _108  and  _109
REMARK   48  A    between atoms: _112  and  _114
REMARK   49  A    between atoms: _114  and  _115
REMARK   50  A    between atoms: _118  and  _120
REMARK   51  A    between atoms: _120  and  _121
REMARK   52  A    between atoms: _123  and  _125
REMARK   53  A    between atoms: _125  and  _126
REMARK   54  A    between atoms: _125  and  _128
REMARK   55  A    between atoms: _128  and  _129
REMARK   56  A    between atoms: _129  and  _130
REMARK   57  A    between atoms: _130  and  _131
REMARK   58  A    between atoms: _140  and  _142
REMARK   59  A    between atoms: _142  and  _143
REMARK   60  A    between atoms: _145  and  _147
REMARK   61  A    between atoms: _147  and  _148
REMARK   62  A    between atoms: _147  and  _150
REMARK   63  A    between atoms: _150  and  _151
REMARK   64  A    between atoms: _151  and  _152
REMARK   65  A    between atoms: _152  and  _153
REMARK   66  A    between atoms: _162  and  _164
REMARK   67  A    between atoms: _164  and  _165
REMARK   68  A    between atoms: _164  and  _167
REMARK   69  A    between atoms: _167  and  _168
REMARK   70  A    between atoms: _173  and  _175
REMARK   71  A    between atoms: _175  and  _176
REMARK   72  A    between atoms: _178  and  _180
REMARK   73  A    between atoms: _180  and  _181
REMARK   74  A    between atoms: _180  and  _183
REMARK   75  A    between atoms: _183  and  _184
REMARK   76  A    between atoms: _184  and  _185
REMARK   77  A    between atoms: _185  and  _186
REMARK   78  A    between atoms: _195  and  _197
REMARK   79  A    between atoms: _197  and  _198
REMARK   80  A    between atoms: _200  and  _202
REMARK   81  A    between atoms: _202  and  _203
REMARK   82  A    between atoms: _202  and  _205
REMARK   83  A    between atoms: _205  and  _206
REMARK   84  A    between atoms: _216  and  _218
REMARK   85  A    between atoms: _218  and  _219
REMARK   86  A    between atoms: _222  and  _224
REMARK   87  A    between atoms: _224  and  _225
REMARK   88  A    between atoms: _228  and  _230
REMARK   89  A    between atoms: _230  and  _231
REMARK   90  A    between atoms: _230  and  _233
REMARK   91  A    between atoms: _233  and  _234
REMARK   92  A    between atoms: _237  and  _239
REMARK   93  A    between atoms: _239  and  _240
REMARK   94  A    between atoms: _239  and  _242
REMARK   95  A    between atoms: _242  and  _243
REMARK   96  A    between atoms: _243  and  _244
REMARK   97  A    between atoms: _249  and  _251
REMARK   98  A    between atoms: _251  and  _252
REMARK   99  A    between atoms: _251  and  _254
REMARK  100  A    between atoms: _254  and  _255
REMARK  101  A    between atoms: _258  and  _260
REMARK  102  A    between atoms: _260  and  _261
REMARK  103  A    between atoms: _260  and  _263
REMARK  104  A    between atoms: _263  and  _264
REMARK  105  A    between atoms: _267  and  _269
REMARK  106  A    between atoms: _269  and  _270
REMARK  107  A    between atoms: _269  and  _272
REMARK  108  A    between atoms: _272  and  _273
REMARK  109  A    between atoms: _276  and  _278
REMARK  110  A    between atoms: _278  and  _279
REMARK  111  A    between atoms: _278  and  _281
REMARK  112  A    between atoms: _281  and  _282
REMARK  113  A    between atoms: _284  and  _286
REMARK  114  A    between atoms: _286  and  _287
REMARK  115  A    between atoms: _286  and  _289
REMARK  116  A    between atoms: _292  and  _294
REMARK  117  A    between atoms: _294  and  _295
REMARK  118  A    between atoms: _294  and  _297
REMARK  119  A    between atoms: _297  and  _298
REMARK  120  A    between atoms: _298  and  _299
REMARK  121  A    between atoms: _299  and  _300
REMARK  122  A    between atoms: _300  and  _301
REMARK  123  A    between atoms: _305  and  _307
REMARK  124  A    between atoms: _307  and  _308
REMARK  125  A    between atoms: _307  and  _310
REMARK  126  A    between atoms: _310  and  _311
REMARK  127  A    between atoms: _322  and  _323
REMARK  128  A    between atoms: _328  and  _330
REMARK  129  A    between atoms: _330  and  _331
REMARK  130  A    between atoms: _330  and  _333
REMARK  131  A    between atoms: _333  and  _334
REMARK  132  A    between atoms: _339  and  _341
REMARK  133  A    between atoms: _341  and  _342
REMARK  134  A    between atoms: _341  and  _344
REMARK  135  A    between atoms: _344  and  _345
REMARK  136  A    between atoms: _348  and  _350
REMARK  137  A    between atoms: _350  and  _351
REMARK  138  A    between atoms: _350  and  _353
REMARK  139  A    between atoms: _356  and  _358
REMARK  140  A    between atoms: _358  and  _359
REMARK  141  A    between atoms: _361  and  _363
REMARK  142  A    between atoms: _363  and  _364
REMARK  143  A    between atoms: _363  and  _366
REMARK  144  A    between atoms: _366  and  _367
REMARK  145  A    between atoms: _367  and  _368
REMARK  146  A    between atoms: _368  and  _369
REMARK  147  A    between atoms: _369  and  _370
REMARK  148  A    between atoms: _374  and  _376
REMARK  149  A    between atoms: _376  and  _377
REMARK  150  A    between atoms: _376  and  _379
REMARK  151  A    between atoms: _379  and  _380
REMARK  152  A    between atoms: _383  and  _385
REMARK  153  A    between atoms: _385  and  _386
REMARK  154  A    between atoms: _389  and  _391
REMARK  155  A    between atoms: _391  and  _392
REMARK  156  A    between atoms: _394  and  _396
REMARK  157  A    between atoms: _396  and  _397
REMARK  158  A    between atoms: _396  and  _399
REMARK  159  A    between atoms: _399  and  _400
REMARK  160  A    between atoms: _403  and  _405
REMARK  161  A    between atoms: _405  and  _406
REMARK  162  A    between atoms: _405  and  _408
REMARK  163  A    between atoms: _408  and  _409
REMARK  164  A    between atoms: _412  and  _414
REMARK  165  A    between atoms: _414  and  _415
REMARK  166  A    between atoms: _418  and  _420
REMARK  167  A    between atoms: _420  and  _421
REMARK  168  A    between atoms: _420  and  _423
REMARK  169  A    between atoms: _423  and  _424
REMARK  170  A    between atoms: _424  and  _425
REMARK  171  A    between atoms: _428  and  _430
REMARK  172  A    between atoms: _430  and  _431
REMARK  173  A    between atoms: _430  and  _433
REMARK  174  A    between atoms: _436  and  _438
REMARK  175  A    between atoms: _438  and  _439
REMARK  176  A    between atoms: _438  and  _441
REMARK  177  A    between atoms: _441  and  _442
REMARK  178  A    between atoms: _445  and  _447
REMARK  179  A    between atoms: _447  and  _448
REMARK  180  A    between atoms: _450  and  _452
REMARK  181  A    between atoms: _452  and  _453
REMARK  182  A    between atoms: _452  and  _455
REMARK  183  A    between atoms: _458  and  _460
REMARK  184  A    between atoms: _460  and  _461
REMARK  185  A    between atoms: _463  and  _465
REMARK  186  A    between atoms: _465  and  _466
REMARK  187  A    between atoms: _465  and  _468
REMARK  188  A    between atoms: _468  and  _469
REMARK  189  A    between atoms: _472  and  _474
REMARK  190  A    between atoms: _474  and  _475
REMARK  191  A    between atoms: _474  and  _477
REMARK  192  A    between atoms: _477  and  _478
REMARK  193  A    between atoms: _483  and  _485
REMARK  194  A    between atoms: _485  and  _486
REMARK  195  A    between atoms: _485  and  _488
REMARK  196  A    between atoms: _491  and  _493
REMARK  197  A    between atoms: _493  and  _494
REMARK  198  A    between atoms: _493  and  _496
REMARK  199  A    between atoms: _496  and  _497
REMARK  200  A    between atoms: _497  and  _498
REMARK  201  A    between atoms: _503  and  _505
REMARK  202  A    between atoms: _505  and  _506
REMARK  203  A    between atoms: _510  and  _511
REMARK  204  A    between atoms: _516  and  _518
REMARK  205  A    between atoms: _518  and  _519
REMARK  206  A    between atoms: _518  and  _521
REMARK  207  A    between atoms: _521  and  _522
REMARK  208  A    between atoms: _522  and  _523
REMARK  209  A    between atoms: _526  and  _528
REMARK  210  A    between atoms: _528  and  _529
REMARK  211  A    between atoms: _528  and  _531
REMARK  212  A    between atoms: _534  and  _536
REMARK  213  A    between atoms: _536  and  _537
REMARK  214  A    between atoms: _536  and  _539
REMARK  215  A    between atoms: _539  and  _540
REMARK  216  A    between atoms: _544  and  _545
REMARK  217  A    between atoms: _550  and  _552
REMARK  218  A    between atoms: _552  and  _553
REMARK  219  A    between atoms: _552  and  _555
REMARK  220  A    between atoms: _555  and  _556
REMARK  221  A    between atoms: _559  and  _561
REMARK  222  A    between atoms: _561  and  _562
REMARK  223  A    between atoms: _565  and  _567
REMARK  224  A    between atoms: _567  and  _568
REMARK  225  A    between atoms: _567  and  _570
REMARK  226  A    between atoms: _570  and  _571
REMARK  227  A    between atoms: _574  and  _576
REMARK  228  A    between atoms: _576  and  _577
REMARK  229  A    between atoms: _576  and  _579
REMARK  230  A    between atoms: _579  and  _580
REMARK  231  A    between atoms: _582  and  _584
REMARK  232  A    between atoms: _584  and  _585
REMARK  233  A    between atoms: _587  and  _589
REMARK  234  A    between atoms: _589  and  _590
REMARK  235  A    between atoms: _589  and  _592
REMARK  236  A    between atoms: _592  and  _593
REMARK  237  A    between atoms: _596  and  _598
REMARK  238  A    between atoms: _598  and  _599
REMARK  239  A    between atoms: _598  and  _601
REMARK                            x       y       z     vdW  Elec       q    Type
REMARK                         _______ _______ _______ _____ _____    ______ ____
ROOT
ATOM      1  O   HOH     1       6.774 -10.494  19.345  0.00  0.00    +0.000 OA
ENDROOT
TORSDOF 0
REMARK  Name = ../refined-set-2016/3rux/3rux_pocket.pdb
REMARK  239 active torsions:
REMARK  status: ('A' for Active; 'I' for Inactive)
REMARK    1  A    between atoms: _1  and  _3
REMARK    2  A    between atoms: _3  and  _4
REMARK    3  A    between atoms: _3  and  _6
REMARK    4  A    between atoms: _6  and  _7
REMARK    5  A    between atoms: _10  and  _12
REMARK    6  A    between atoms: _12  and  _13
REMARK    7  A    between atoms: _15  and  _17
REMARK    8  A    between atoms: _17  and  _18
REMARK    9  A    between atoms: _17  and  _20
REMARK   10  A    between atoms: _20  and  _21
REMARK   11  A    between atoms: _23  and  _25
REMARK   12  A    between atoms: _25  and  _26
REMARK   13  A    between atoms: _25  and  _28
REMARK   14  A    between atoms: _28  and  _29
REMARK   15  A    between atoms: _32  and  _34
REMARK   16  A    between atoms: _34  and  _35
REMARK   17  A    between atoms: _34  and  _37
REMARK   18  A    between atoms: _37  and  _38
REMARK   19  A    between atoms: _43  and  _45
REMARK   20  A    between atoms: _45  and  _46
REMARK   21  A    between atoms: _49  and  _51
REMARK   22  A    between atoms: _51  and  _52
REMARK   23  A    between atoms: _51  and  _54
REMARK   24  A    between atoms: _54  and  _55
REMARK   25  A    between atoms: _58  and  _60
REMARK   26  A    between atoms: _60  and  _61
REMARK   27  A    between atoms: _60  and  _63
REMARK   28  A    between atoms: _63  and  _64
REMARK   29  A    between atoms: _67  and  _69
REMARK   30  A    between atoms: _69  and  _70
REMARK   31  A    between atoms: _69  and  _72
REMARK   32  A    between atoms: _72  and  _73
REMARK   33  A    between atoms: _76  and  _78
REMARK   34  A    between atoms: _78  and  _79
REMARK   35  A    between atoms: _78  and  _81
REMARK   36  A    between atoms: _81  and  _82
REMARK   37  A    between atoms: _85  and  _87
REMARK   38  A    between atoms: _87  and  _88
REMARK   39  A    between atoms: _91  and  _93
REMARK   40  A    between atoms: _93  and  _94
REMARK   41  A    between atoms: _93  and  _96
REMARK   42  A    between atoms: _96  and  _97
REMARK   43  A    between atoms: _97  and  _98
REMARK   44  A    between atoms: _103  and  _105
REMARK   45  A    between atoms: _105  and  _106
REMARK   46  A    between atoms: _105  and  _108
REMARK   47  A    between atoms: _108  and  _109
REMARK   48  A    between atoms: _112  and  _114
REMARK   49  A    between atoms: _114  and  _115
REMARK   50  A    between atoms: _118  and  _120
REMARK   51  A    between atoms: _120  and  _121
REMARK   52  A    between atoms: _123  and  _125
REMARK   53  A    between atoms: _125  and  _126
REMARK   54  A    between atoms: _125  and  _128
REMARK   55  A    between atoms: _128  and  _129
REMARK   56  A    between atoms: _129  and  _130
REMARK   57  A    between atoms: _130  and  _131
REMARK   58  A    between atoms: _140  and  _142
REMARK   59  A    between atoms: _142  and  _143
REMARK   60  A    between atoms: _145  and  _147
REMARK   61  A    between atoms: _147  and  _148
REMARK   62  A    between atoms: _147  and  _150
REMARK   63  A    between atoms: _150  and  _151
REMARK   64  A    between atoms: _151  and  _152
REMARK   65  A    between atoms: _152  and  _153
REMARK   66  A    between atoms: _162  and  _164
REMARK   67  A    between atoms: _164  and  _165
REMARK   68  A    between atoms: _164  and  _167
REMARK   69  A    between atoms: _167  and  _168
REMARK   70  A    between atoms: _173  and  _175
REMARK   71  A    between atoms: _175  and  _176
REMARK   72  A    between atoms: _178  and  _180
REMARK   73  A    between atoms: _180  and  _181
REMARK   74  A    between atoms: _180  and  _183
REMARK   75  A    between atoms: _183  and  _184
REMARK   76  A    between atoms: _184  and  _185
REMARK   77  A    between atoms: _185  and  _186
REMARK   78  A    between atoms: _195  and  _197
REMARK   79  A    between atoms: _197  and  _198
REMARK   80  A    between atoms: _200  and  _202
REMARK   81  A    between atoms: _202  and  _203
REMARK   82  A    between atoms: _202  and  _205
REMARK   83  A    between atoms: _205  and  _206
REMARK   84  A    between atoms: _216  and  _218
REMARK   85  A    between atoms: _218  and  _219
REMARK   86  A    between atoms: _222  and  _224
REMARK   87  A    between atoms: _224  and  _225
REMARK   88  A    between atoms: _228  and  _230
REMARK   89  A    between atoms: _230  and  _231
REMARK   90  A    between atoms: _230  and  _233
REMARK   91  A    between atoms: _233  and  _234
REMARK   92  A    between atoms: _237  and  _239
REMARK   93  A    between atoms: _239  and  _240
REMARK   94  A    between atoms: _239  and  _242
REMARK   95  A    between atoms: _242  and  _243
REMARK   96  A    between atoms: _243  and  _244
REMARK   97  A    between atoms: _249  and  _251
REMARK   98  A    between atoms: _251  and  _252
REMARK   99  A    between atoms: _251  and  _254
REMARK  100  A    between atoms: _254  and  _255
REMARK  101  A    between atoms: _258  and  _260
REMARK  102  A    between atoms: _260  and  _261
REMARK  103  A    between atoms: _260  and  _263
REMARK  104  A    between atoms: _263  and  _264
REMARK  105  A    between atoms: _267  and  _269
REMARK  106  A    between atoms: _269  and  _270
REMARK  107  A    between atoms: _269  and  _272
REMARK  108  A    between atoms: _272  and  _273
REMARK  109  A    between atoms: _276  and  _278
REMARK  110  A    between atoms: _278  and  _279
REMARK  111  A    between atoms: _278  and  _281
REMARK  112  A    between atoms: _281  and  _282
REMARK  113  A    between atoms: _284  and  _286
REMARK  114  A    between atoms: _286  and  _287
REMARK  115  A    between atoms: _286  and  _289
REMARK  116  A    between atoms: _292  and  _294
REMARK  117  A    between atoms: _294  and  _295
REMARK  118  A    between atoms: _294  and  _297
REMARK  119  A    between atoms: _297  and  _298
REMARK  120  A    between atoms: _298  and  _299
REMARK  121  A    between atoms: _299  and  _300
REMARK  122  A    between atoms: _300  and  _301
REMARK  123  A    between atoms: _305  and  _307
REMARK  124  A    between atoms: _307  and  _308
REMARK  125  A    between atoms: _307  and  _310
REMARK  126  A    between atoms: _310  and  _311
REMARK  127  A    between atoms: _322  and  _323
REMARK  128  A    between atoms: _328  and  _330
REMARK  129  A    between atoms: _330  and  _331
REMARK  130  A    between atoms: _330  and  _333
REMARK  131  A    between atoms: _333  and  _334
REMARK  132  A    between atoms: _339  and  _341
REMARK  133  A    between atoms: _341  and  _342
REMARK  134  A    between atoms: _341  and  _344
REMARK  135  A    between atoms: _344  and  _345
REMARK  136  A    between atoms: _348  and  _350
REMARK  137  A    between atoms: _350  and  _351
REMARK  138  A    between atoms: _350  and  _353
REMARK  139  A    between atoms: _356  and  _358
REMARK  140  A    between atoms: _358  and  _359
REMARK  141  A    between atoms: _361  and  _363
REMARK  142  A    between atoms: _363  and  _364
REMARK  143  A    between atoms: _363  and  _366
REMARK  144  A    between atoms: _366  and  _367
REMARK  145  A    between atoms: _367  and  _368
REMARK  146  A    between atoms: _368  and  _369
REMARK  147  A    between atoms: _369  and  _370
REMARK  148  A    between atoms: _374  and  _376
REMARK  149  A    between atoms: _376  and  _377
REMARK  150  A    between atoms: _376  and  _379
REMARK  151  A    between atoms: _379  and  _380
REMARK  152  A    between atoms: _383  and  _385
REMARK  153  A    between atoms: _385  and  _386
REMARK  154  A    between atoms: _389  and  _391
REMARK  155  A    between atoms: _391  and  _392
REMARK  156  A    between atoms: _394  and  _396
REMARK  157  A    between atoms: _396  and  _397
REMARK  158  A    between atoms: _396  and  _399
REMARK  159  A    between atoms: _399  and  _400
REMARK  160  A    between atoms: _403  and  _405
REMARK  161  A    between atoms: _405  and  _406
REMARK  162  A    between atoms: _405  and  _408
REMARK  163  A    between atoms: _408  and  _409
REMARK  164  A    between atoms: _412  and  _414
REMARK  165  A    between atoms: _414  and  _415
REMARK  166  A    between atoms: _418  and  _420
REMARK  167  A    between atoms: _420  and  _421
REMARK  168  A    between atoms: _420  and  _423
REMARK  169  A    between atoms: _423  and  _424
REMARK  170  A    between atoms: _424  and  _425
REMARK  171  A    between atoms: _428  and  _430
REMARK  172  A    between atoms: _430  and  _431
REMARK  173  A    between atoms: _430  and  _433
REMARK  174  A    between atoms: _436  and  _438
REMARK  175  A    between atoms: _438  and  _439
REMARK  176  A    between atoms: _438  and  _441
REMARK  177  A    between atoms: _441  and  _442
REMARK  178  A    between atoms: _445  and  _447
REMARK  179  A    between atoms: _447  and  _448
REMARK  180  A    between atoms: _450  and  _452
REMARK  181  A    between atoms: _452  and  _453
REMARK  182  A    between atoms: _452  and  _455
REMARK  183  A    between atoms: _458  and  _460
REMARK  184  A    between atoms: _460  and  _461
REMARK  185  A    between atoms: _463  and  _465
REMARK  186  A    between atoms: _465  and  _466
REMARK  187  A    between atoms: _465  and  _468
REMARK  188  A    between atoms: _468  and  _469
REMARK  189  A    between atoms: _472  and  _474
REMARK  190  A    between atoms: _474  and  _475
REMARK  191  A    between atoms: _474  and  _477
REMARK  192  A    between atoms: _477  and  _478
REMARK  193  A    between atoms: _483  and  _485
REMARK  194  A    between atoms: _485  and  _486
REMARK  195  A    between atoms: _485  and  _488
REMARK  196  A    between atoms: _491  and  _493
REMARK  197  A    between atoms: _493  and  _494
REMARK  198  A    between atoms: _493  and  _496
REMARK  199  A    between atoms: _496  and  _497
REMARK  200  A    between atoms: _497  and  _498
REMARK  201  A    between atoms: _503  and  _505
REMARK  202  A    between atoms: _505  and  _506
REMARK  203  A    between atoms: _510  and  _511
REMARK  204  A    between atoms: _516  and  _518
REMARK  205  A    between atoms: _518  and  _519
REMARK  206  A    between atoms: _518  and  _521
REMARK  207  A    between atoms: _521  and  _522
REMARK  208  A    between atoms: _522  and  _523
REMARK  209  A    between atoms: _526  and  _528
REMARK  210  A    between atoms: _528  and  _529
REMARK  211  A    between atoms: _528  and  _531
REMARK  212  A    between atoms: _534  and  _536
REMARK  213  A    between atoms: _536  and  _537
REMARK  214  A    between atoms: _536  and  _539
REMARK  215  A    between atoms: _539  and  _540
REMARK  216  A    between atoms: _544  and  _545
REMARK  217  A    between atoms: _550  and  _552
REMARK  218  A    between atoms: _552  and  _553
REMARK  219  A    between atoms: _552  and  _555
REMARK  220  A    between atoms: _555  and  _556
REMARK  221  A    between atoms: _559  and  _561
REMARK  222  A    between atoms: _561  and  _562
REMARK  223  A    between atoms: _565  and  _567
REMARK  224  A    between atoms: _567  and  _568
REMARK  225  A    between atoms: _567  and  _570
REMARK  226  A    between atoms: _570  and  _571
REMARK  227  A    between atoms: _574  and  _576
REMARK  228  A    between atoms: _576  and  _577
REMARK  229  A    between atoms: _576  and  _579
REMARK  230  A    between atoms: _579  and  _580
REMARK  231  A    between atoms: _582  and  _584
REMARK  232  A    between atoms: _584  and  _585
REMARK  233  A    between atoms: _587  and  _589
REMARK  234  A    between atoms: _589  and  _590
REMARK  235  A    between atoms: _589  and  _592
REMARK  236  A    between atoms: _592  and  _593
REMARK  237  A    between atoms: _596  and  _598
REMARK  238  A    between atoms: _598  and  _599
REMARK  239  A    between atoms: _598  and  _601
REMARK                            x       y       z     vdW  Elec       q    Type
REMARK                         _______ _______ _______ _____ _____    ______ ____
ROOT
ATOM      1  O   HOH     1      -1.669   3.002  12.421  0.00  0.00    +0.000 OA
ENDROOT
TORSDOF 0
REMARK  Name = ../refined-set-2016/3rux/3rux_pocket.pdb
REMARK  239 active torsions:
REMARK  status: ('A' for Active; 'I' for Inactive)
REMARK    1  A    between atoms: _1  and  _3
REMARK    2  A    between atoms: _3  and  _4
REMARK    3  A    between atoms: _3  and  _6
REMARK    4  A    between atoms: _6  and  _7
REMARK    5  A    between atoms: _10  and  _12
REMARK    6  A    between atoms: _12  and  _13
REMARK    7  A    between atoms: _15  and  _17
REMARK    8  A    between atoms: _17  and  _18
REMARK    9  A    between atoms: _17  and  _20
REMARK   10  A    between atoms: _20  and  _21
REMARK   11  A    between atoms: _23  and  _25
REMARK   12  A    between atoms: _25  and  _26
REMARK   13  A    between atoms: _25  and  _28
REMARK   14  A    between atoms: _28  and  _29
REMARK   15  A    between atoms: _32  and  _34
REMARK   16  A    between atoms: _34  and  _35
REMARK   17  A    between atoms: _34  and  _37
REMARK   18  A    between atoms: _37  and  _38
REMARK   19  A    between atoms: _43  and  _45
REMARK   20  A    between atoms: _45  and  _46
REMARK   21  A    between atoms: _49  and  _51
REMARK   22  A    between atoms: _51  and  _52
REMARK   23  A    between atoms: _51  and  _54
REMARK   24  A    between atoms: _54  and  _55
REMARK   25  A    between atoms: _58  and  _60
REMARK   26  A    between atoms: _60  and  _61
REMARK   27  A    between atoms: _60  and  _63
REMARK   28  A    between atoms: _63  and  _64
REMARK   29  A    between atoms: _67  and  _69
REMARK   30  A    between atoms: _69  and  _70
REMARK   31  A    between atoms: _69  and  _72
REMARK   32  A    between atoms: _72  and  _73
REMARK   33  A    between atoms: _76  and  _78
REMARK   34  A    between atoms: _78  and  _79
REMARK   35  A    between atoms: _78  and  _81
REMARK   36  A    between atoms: _81  and  _82
REMARK   37  A    between atoms: _85  and  _87
REMARK   38  A    between atoms: _87  and  _88
REMARK   39  A    between atoms: _91  and  _93
REMARK   40  A    between atoms: _93  and  _94
REMARK   41  A    between atoms: _93  and  _96
REMARK   42  A    between atoms: _96  and  _97
REMARK   43  A    between atoms: _97  and  _98
REMARK   44  A    between atoms: _103  and  _105
REMARK   45  A    between atoms: _105  and  _106
REMARK   46  A    between atoms: _105  and  _108
REMARK   47  A    between atoms: _108  and  _109
REMARK   48  A    between atoms: _112  and  _114
REMARK   49  A    between atoms: _114  and  _115
REMARK   50  A    between atoms: _118  and  _120
REMARK   51  A    between atoms: _120  and  _121
REMARK   52  A    between atoms: _123  and  _125
REMARK   53  A    between atoms: _125  and  _126
REMARK   54  A    between atoms: _125  and  _128
REMARK   55  A    between atoms: _128  and  _129
REMARK   56  A    between atoms: _129  and  _130
REMARK   57  A    between atoms: _130  and  _131
REMARK   58  A    between atoms: _140  and  _142
REMARK   59  A    between atoms: _142  and  _143
REMARK   60  A    between atoms: _145  and  _147
REMARK   61  A    between atoms: _147  and  _148
REMARK   62  A    between atoms: _147  and  _150
REMARK   63  A    between atoms: _150  and  _151
REMARK   64  A    between atoms: _151  and  _152
REMARK   65  A    between atoms: _152  and  _153
REMARK   66  A    between atoms: _162  and  _164
REMARK   67  A    between atoms: _164  and  _165
REMARK   68  A    between atoms: _164  and  _167
REMARK   69  A    between atoms: _167  and  _168
REMARK   70  A    between atoms: _173  and  _175
REMARK   71  A    between atoms: _175  and  _176
REMARK   72  A    between atoms: _178  and  _180
REMARK   73  A    between atoms: _180  and  _181
REMARK   74  A    between atoms: _180  and  _183
REMARK   75  A    between atoms: _183  and  _184
REMARK   76  A    between atoms: _184  and  _185
REMARK   77  A    between atoms: _185  and  _186
REMARK   78  A    between atoms: _195  and  _197
REMARK   79  A    between atoms: _197  and  _198
REMARK   80  A    between atoms: _200  and  _202
REMARK   81  A    between atoms: _202  and  _203
REMARK   82  A    between atoms: _202  and  _205
REMARK   83  A    between atoms: _205  and  _206
REMARK   84  A    between atoms: _216  and  _218
REMARK   85  A    between atoms: _218  and  _219
REMARK   86  A    between atoms: _222  and  _224
REMARK   87  A    between atoms: _224  and  _225
REMARK   88  A    between atoms: _228  and  _230
REMARK   89  A    between atoms: _230  and  _231
REMARK   90  A    between atoms: _230  and  _233
REMARK   91  A    between atoms: _233  and  _234
REMARK   92  A    between atoms: _237  and  _239
REMARK   93  A    between atoms: _239  and  _240
REMARK   94  A    between atoms: _239  and  _242
REMARK   95  A    between atoms: _242  and  _243
REMARK   96  A    between atoms: _243  and  _244
REMARK   97  A    between atoms: _249  and  _251
REMARK   98  A    between atoms: _251  and  _252
REMARK   99  A    between atoms: _251  and  _254
REMARK  100  A    between atoms: _254  and  _255
REMARK  101  A    between atoms: _258  and  _260
REMARK  102  A    between atoms: _260  and  _261
REMARK  103  A    between atoms: _260  and  _263
REMARK  104  A    between atoms: _263  and  _264
REMARK  105  A    between atoms: _267  and  _269
REMARK  106  A    between atoms: _269  and  _270
REMARK  107  A    between atoms: _269  and  _272
REMARK  108  A    between atoms: _272  and  _273
REMARK  109  A    between atoms: _276  and  _278
REMARK  110  A    between atoms: _278  and  _279
REMARK  111  A    between atoms: _278  and  _281
REMARK  112  A    between atoms: _281  and  _282
REMARK  113  A    between atoms: _284  and  _286
REMARK  114  A    between atoms: _286  and  _287
REMARK  115  A    between atoms: _286  and  _289
REMARK  116  A    between atoms: _292  and  _294
REMARK  117  A    between atoms: _294  and  _295
REMARK  118  A    between atoms: _294  and  _297
REMARK  119  A    between atoms: _297  and  _298
REMARK  120  A    between atoms: _298  and  _299
REMARK  121  A    between atoms: _299  and  _300
REMARK  122  A    between atoms: _300  and  _301
REMARK  123  A    between atoms: _305  and  _307
REMARK  124  A    between atoms: _307  and  _308
REMARK  125  A    between atoms: _307  and  _310
REMARK  126  A    between atoms: _310  and  _311
REMARK  127  A    between atoms: _322  and  _323
REMARK  128  A    between atoms: _328  and  _330
REMARK  129  A    between atoms: _330  and  _331
REMARK  130  A    between atoms: _330  and  _333
REMARK  131  A    between atoms: _333  and  _334
REMARK  132  A    between atoms: _339  and  _341
REMARK  133  A    between atoms: _341  and  _342
REMARK  134  A    between atoms: _341  and  _344
REMARK  135  A    between atoms: _344  and  _345
REMARK  136  A    between atoms: _348  and  _350
REMARK  137  A    between atoms: _350  and  _351
REMARK  138  A    between atoms: _350  and  _353
REMARK  139  A    between atoms: _356  and  _358
REMARK  140  A    between atoms: _358  and  _359
REMARK  141  A    between atoms: _361  and  _363
REMARK  142  A    between atoms: _363  and  _364
REMARK  143  A    between atoms: _363  and  _366
REMARK  144  A    between atoms: _366  and  _367
REMARK  145  A    between atoms: _367  and  _368
REMARK  146  A    between atoms: _368  and  _369
REMARK  147  A    between atoms: _369  and  _370
REMARK  148  A    between atoms: _374  and  _376
REMARK  149  A    between atoms: _376  and  _377
REMARK  150  A    between atoms: _376  and  _379
REMARK  151  A    between atoms: _379  and  _380
REMARK  152  A    between atoms: _383  and  _385
REMARK  153  A    between atoms: _385  and  _386
REMARK  154  A    between atoms: _389  and  _391
REMARK  155  A    between atoms: _391  and  _392
REMARK  156  A    between atoms: _394  and  _396
REMARK  157  A    between atoms: _396  and  _397
REMARK  158  A    between atoms: _396  and  _399
REMARK  159  A    between atoms: _399  and  _400
REMARK  160  A    between atoms: _403  and  _405
REMARK  161  A    between atoms: _405  and  _406
REMARK  162  A    between atoms: _405  and  _408
REMARK  163  A    between atoms: _408  and  _409
REMARK  164  A    between atoms: _412  and  _414
REMARK  165  A    between atoms: _414  and  _415
REMARK  166  A    between atoms: _418  and  _420
REMARK  167  A    between atoms: _420  and  _421
REMARK  168  A    between atoms: _420  and  _423
REMARK  169  A    between atoms: _423  and  _424
REMARK  170  A    between atoms: _424  and  _425
REMARK  171  A    between atoms: _428  and  _430
REMARK  172  A    between atoms: _430  and  _431
REMARK  173  A    between atoms: _430  and  _433
REMARK  174  A    between atoms: _436  and  _438
REMARK  175  A    between atoms: _438  and  _439
REMARK  176  A    between atoms: _438  and  _441
REMARK  177  A    between atoms: _441  and  _442
REMARK  178  A    between atoms: _445  and  _447
REMARK  179  A    between atoms: _447  and  _448
REMARK  180  A    between atoms: _450  and  _452
REMARK  181  A    between atoms: _452  and  _453
REMARK  182  A    between atoms: _452  and  _455
REMARK  183  A    between atoms: _458  and  _460
REMARK  184  A    between atoms: _460  and  _461
REMARK  185  A    between atoms: _463  and  _465
REMARK  186  A    between atoms: _465  and  _466
REMARK  187  A    between atoms: _465  and  _468
REMARK  188  A    between atoms: _468  and  _469
REMARK  189  A    between atoms: _472  and  _474
REMARK  190  A    between atoms: _474  and  _475
REMARK  191  A    between atoms: _474  and  _477
REMARK  192  A    between atoms: _477  and  _478
REMARK  193  A    between atoms: _483  and  _485
REMARK  194  A    between atoms: _485  and  _486
REMARK  195  A    between atoms: _485  and  _488
REMARK  196  A    between atoms: _491  and  _493
REMARK  197  A    between atoms: _493  and  _494
REMARK  198  A    between atoms: _493  and  _496
REMARK  199  A    between atoms: _496  and  _497
REMARK  200  A    between atoms: _497  and  _498
REMARK  201  A    between atoms: _503  and  _505
REMARK  202  A    between atoms: _505  and  _506
REMARK  203  A    between atoms: _510  and  _511
REMARK  204  A    between atoms: _516  and  _518
REMARK  205  A    between atoms: _518  and  _519
REMARK  206  A    between atoms: _518  and  _521
REMARK  207  A    between atoms: _521  and  _522
REMARK  208  A    between atoms: _522  and  _523
REMARK  209  A    between atoms: _526  and  _528
REMARK  210  A    between atoms: _528  and  _529
REMARK  211  A    between atoms: _528  and  _531
REMARK  212  A    between atoms: _534  and  _536
REMARK  213  A    between atoms: _536  and  _537
REMARK  214  A    between atoms: _536  and  _539
REMARK  215  A    between atoms: _539  and  _540
REMARK  216  A    between atoms: _544  and  _545
REMARK  217  A    between atoms: _550  and  _552
REMARK  218  A    between atoms: _552  and  _553
REMARK  219  A    between atoms: _552  and  _555
REMARK  220  A    between atoms: _555  and  _556
REMARK  221  A    between atoms: _559  and  _561
REMARK  222  A    between atoms: _561  and  _562
REMARK  223  A    between atoms: _565  and  _567
REMARK  224  A    between atoms: _567  and  _568
REMARK  225  A    between atoms: _567  and  _570
REMARK  226  A    between atoms: _570  and  _571
REMARK  227  A    between atoms: _574  and  _576
REMARK  228  A    between atoms: _576  and  _577
REMARK  229  A    between atoms: _576  and  _579
REMARK  230  A    between atoms: _579  and  _580
REMARK  231  A    between atoms: _582  and  _584
REMARK  232  A    between atoms: _584  and  _585
REMARK  233  A    between atoms: _587  and  _589
REMARK  234  A    between atoms: _589  and  _590
REMARK  235  A    between atoms: _589  and  _592
REMARK  236  A    between atoms: _592  and  _593
REMARK  237  A    between atoms: _596  and  _598
REMARK  238  A    between atoms: _598  and  _599
REMARK  239  A    between atoms: _598  and  _601
REMARK                            x       y       z     vdW  Elec       q    Type
REMARK                         _______ _______ _______ _____ _____    ______ ____
ROOT
ATOM      1  O   HOH     1      -0.600   0.473  11.652  0.00  0.00    +0.000 OA
ENDROOT
TORSDOF 0
REMARK  Name = ../refined-set-2016/3rux/3rux_pocket.pdb
REMARK  239 active torsions:
REMARK  status: ('A' for Active; 'I' for Inactive)
REMARK    1  A    between atoms: _1  and  _3
REMARK    2  A    between atoms: _3  and  _4
REMARK    3  A    between atoms: _3  and  _6
REMARK    4  A    between atoms: _6  and  _7
REMARK    5  A    between atoms: _10  and  _12
REMARK    6  A    between atoms: _12  and  _13
REMARK    7  A    between atoms: _15  and  _17
REMARK    8  A    between atoms: _17  and  _18
REMARK    9  A    between atoms: _17  and  _20
REMARK   10  A    between atoms: _20  and  _21
REMARK   11  A    between atoms: _23  and  _25
REMARK   12  A    between atoms: _25  and  _26
REMARK   13  A    between atoms: _25  and  _28
REMARK   14  A    between atoms: _28  and  _29
REMARK   15  A    between atoms: _32  and  _34
REMARK   16  A    between atoms: _34  and  _35
REMARK   17  A    between atoms: _34  and  _37
REMARK   18  A    between atoms: _37  and  _38
REMARK   19  A    between atoms: _43  and  _45
REMARK   20  A    between atoms: _45  and  _46
REMARK   21  A    between atoms: _49  and  _51
REMARK   22  A    between atoms: _51  and  _52
REMARK   23  A    between atoms: _51  and  _54
REMARK   24  A    between atoms: _54  and  _55
REMARK   25  A    between atoms: _58  and  _60
REMARK   26  A    between atoms: _60  and  _61
REMARK   27  A    between atoms: _60  and  _63
REMARK   28  A    between atoms: _63  and  _64
REMARK   29  A    between atoms: _67  and  _69
REMARK   30  A    between atoms: _69  and  _70
REMARK   31  A    between atoms: _69  and  _72
REMARK   32  A    between atoms: _72  and  _73
REMARK   33  A    between atoms: _76  and  _78
REMARK   34  A    between atoms: _78  and  _79
REMARK   35  A    between atoms: _78  and  _81
REMARK   36  A    between atoms: _81  and  _82
REMARK   37  A    between atoms: _85  and  _87
REMARK   38  A    between atoms: _87  and  _88
REMARK   39  A    between atoms: _91  and  _93
REMARK   40  A    between atoms: _93  and  _94
REMARK   41  A    between atoms: _93  and  _96
REMARK   42  A    between atoms: _96  and  _97
REMARK   43  A    between atoms: _97  and  _98
REMARK   44  A    between atoms: _103  and  _105
REMARK   45  A    between atoms: _105  and  _106
REMARK   46  A    between atoms: _105  and  _108
REMARK   47  A    between atoms: _108  and  _109
REMARK   48  A    between atoms: _112  and  _114
REMARK   49  A    between atoms: _114  and  _115
REMARK   50  A    between atoms: _118  and  _120
REMARK   51  A    between atoms: _120  and  _121
REMARK   52  A    between atoms: _123  and  _125
REMARK   53  A    between atoms: _125  and  _126
REMARK   54  A    between atoms: _125  and  _128
REMARK   55  A    between atoms: _128  and  _129
REMARK   56  A    between atoms: _129  and  _130
REMARK   57  A    between atoms: _130  and  _131
REMARK   58  A    between atoms: _140  and  _142
REMARK   59  A    between atoms: _142  and  _143
REMARK   60  A    between atoms: _145  and  _147
REMARK   61  A    between atoms: _147  and  _148
REMARK   62  A    between atoms: _147  and  _150
REMARK   63  A    between atoms: _150  and  _151
REMARK   64  A    between atoms: _151  and  _152
REMARK   65  A    between atoms: _152  and  _153
REMARK   66  A    between atoms: _162  and  _164
REMARK   67  A    between atoms: _164  and  _165
REMARK   68  A    between atoms: _164  and  _167
REMARK   69  A    between atoms: _167  and  _168
REMARK   70  A    between atoms: _173  and  _175
REMARK   71  A    between atoms: _175  and  _176
REMARK   72  A    between atoms: _178  and  _180
REMARK   73  A    between atoms: _180  and  _181
REMARK   74  A    between atoms: _180  and  _183
REMARK   75  A    between atoms: _183  and  _184
REMARK   76  A    between atoms: _184  and  _185
REMARK   77  A    between atoms: _185  and  _186
REMARK   78  A    between atoms: _195  and  _197
REMARK   79  A    between atoms: _197  and  _198
REMARK   80  A    between atoms: _200  and  _202
REMARK   81  A    between atoms: _202  and  _203
REMARK   82  A    between atoms: _202  and  _205
REMARK   83  A    between atoms: _205  and  _206
REMARK   84  A    between atoms: _216  and  _218
REMARK   85  A    between atoms: _218  and  _219
REMARK   86  A    between atoms: _222  and  _224
REMARK   87  A    between atoms: _224  and  _225
REMARK   88  A    between atoms: _228  and  _230
REMARK   89  A    between atoms: _230  and  _231
REMARK   90  A    between atoms: _230  and  _233
REMARK   91  A    between atoms: _233  and  _234
REMARK   92  A    between atoms: _237  and  _239
REMARK   93  A    between atoms: _239  and  _240
REMARK   94  A    between atoms: _239  and  _242
REMARK   95  A    between atoms: _242  and  _243
REMARK   96  A    between atoms: _243  and  _244
REMARK   97  A    between atoms: _249  and  _251
REMARK   98  A    between atoms: _251  and  _252
REMARK   99  A    between atoms: _251  and  _254
REMARK  100  A    between atoms: _254  and  _255
REMARK  101  A    between atoms: _258  and  _260
REMARK  102  A    between atoms: _260  and  _261
REMARK  103  A    between atoms: _260  and  _263
REMARK  104  A    between atoms: _263  and  _264
REMARK  105  A    between atoms: _267  and  _269
REMARK  106  A    between atoms: _269  and  _270
REMARK  107  A    between atoms: _269  and  _272
REMARK  108  A    between atoms: _272  and  _273
REMARK  109  A    between atoms: _276  and  _278
REMARK  110  A    between atoms: _278  and  _279
REMARK  111  A    between atoms: _278  and  _281
REMARK  112  A    between atoms: _281  and  _282
REMARK  113  A    between atoms: _284  and  _286
REMARK  114  A    between atoms: _286  and  _287
REMARK  115  A    between atoms: _286  and  _289
REMARK  116  A    between atoms: _292  and  _294
REMARK  117  A    between atoms: _294  and  _295
REMARK  118  A    between atoms: _294  and  _297
REMARK  119  A    between atoms: _297  and  _298
REMARK  120  A    between atoms: _298  and  _299
REMARK  121  A    between atoms: _299  and  _300
REMARK  122  A    between atoms: _300  and  _301
REMARK  123  A    between atoms: _305  and  _307
REMARK  124  A    between atoms: _307  and  _308
REMARK  125  A    between atoms: _307  and  _310
REMARK  126  A    between atoms: _310  and  _311
REMARK  127  A    between atoms: _322  and  _323
REMARK  128  A    between atoms: _328  and  _330
REMARK  129  A    between atoms: _330  and  _331
REMARK  130  A    between atoms: _330  and  _333
REMARK  131  A    between atoms: _333  and  _334
REMARK  132  A    between atoms: _339  and  _341
REMARK  133  A    between atoms: _341  and  _342
REMARK  134  A    between atoms: _341  and  _344
REMARK  135  A    between atoms: _344  and  _345
REMARK  136  A    between atoms: _348  and  _350
REMARK  137  A    between atoms: _350  and  _351
REMARK  138  A    between atoms: _350  and  _353
REMARK  139  A    between atoms: _356  and  _358
REMARK  140  A    between atoms: _358  and  _359
REMARK  141  A    between atoms: _361  and  _363
REMARK  142  A    between atoms: _363  and  _364
REMARK  143  A    between atoms: _363  and  _366
REMARK  144  A    between atoms: _366  and  _367
REMARK  145  A    between atoms: _367  and  _368
REMARK  146  A    between atoms: _368  and  _369
REMARK  147  A    between atoms: _369  and  _370
REMARK  148  A    between atoms: _374  and  _376
REMARK  149  A    between atoms: _376  and  _377
REMARK  150  A    between atoms: _376  and  _379
REMARK  151  A    between atoms: _379  and  _380
REMARK  152  A    between atoms: _383  and  _385
REMARK  153  A    between atoms: _385  and  _386
REMARK  154  A    between atoms: _389  and  _391
REMARK  155  A    between atoms: _391  and  _392
REMARK  156  A    between atoms: _394  and  _396
REMARK  157  A    between atoms: _396  and  _397
REMARK  158  A    between atoms: _396  and  _399
REMARK  159  A    between atoms: _399  and  _400
REMARK  160  A    between atoms: _403  and  _405
REMARK  161  A    between atoms: _405  and  _406
REMARK  162  A    between atoms: _405  and  _408
REMARK  163  A    between atoms: _408  and  _409
REMARK  164  A    between atoms: _412  and  _414
REMARK  165  A    between atoms: _414  and  _415
REMARK  166  A    between atoms: _418  and  _420
REMARK  167  A    between atoms: _420  and  _421
REMARK  168  A    between atoms: _420  and  _423
REMARK  169  A    between atoms: _423  and  _424
REMARK  170  A    between atoms: _424  and  _425
REMARK  171  A    between atoms: _428  and  _430
REMARK  172  A    between atoms: _430  and  _431
REMARK  173  A    between atoms: _430  and  _433
REMARK  174  A    between atoms: _436  and  _438
REMARK  175  A    between atoms: _438  and  _439
REMARK  176  A    between atoms: _438  and  _441
REMARK  177  A    between atoms: _441  and  _442
REMARK  178  A    between atoms: _445  and  _447
REMARK  179  A    between atoms: _447  and  _448
REMARK  180  A    between atoms: _450  and  _452
REMARK  181  A    between atoms: _452  and  _453
REMARK  182  A    between atoms: _452  and  _455
REMARK  183  A    between atoms: _458  and  _460
REMARK  184  A    between atoms: _460  and  _461
REMARK  185  A    between atoms: _463  and  _465
REMARK  186  A    between atoms: _465  and  _466
REMARK  187  A    between atoms: _465  and  _468
REMARK  188  A    between atoms: _468  and  _469
REMARK  189  A    between atoms: _472  and  _474
REMARK  190  A    between atoms: _474  and  _475
REMARK  191  A    between atoms: _474  and  _477
REMARK  192  A    between atoms: _477  and  _478
REMARK  193  A    between atoms: _483  and  _485
REMARK  194  A    between atoms: _485  and  _486
REMARK  195  A    between atoms: _485  and  _488
REMARK  196  A    between atoms: _491  and  _493
REMARK  197  A    between atoms: _493  and  _494
REMARK  198  A    between atoms: _493  and  _496
REMARK  199  A    between atoms: _496  and  _497
REMARK  200  A    between atoms: _497  and  _498
REMARK  201  A    between atoms: _503  and  _505
REMARK  202  A    between atoms: _505  and  _506
REMARK  203  A    between atoms: _510  and  _511
REMARK  204  A    between atoms: _516  and  _518
REMARK  205  A    between atoms: _518  and  _519
REMARK  206  A    between atoms: _518  and  _521
REMARK  207  A    between atoms: _521  and  _522
REMARK  208  A    between atoms: _522  and  _523
REMARK  209  A    between atoms: _526  and  _528
REMARK  210  A    between atoms: _528  and  _529
REMARK  211  A    between atoms: _528  and  _531
REMARK  212  A    between atoms: _534  and  _536
REMARK  213  A    between atoms: _536  and  _537
REMARK  214  A    between atoms: _536  and  _539
REMARK  215  A    between atoms: _539  and  _540
REMARK  216  A    between atoms: _544  and  _545
REMARK  217  A    between atoms: _550  and  _552
REMARK  218  A    between atoms: _552  and  _553
REMARK  219  A    between atoms: _552  and  _555
REMARK  220  A    between atoms: _555  and  _556
REMARK  221  A    between atoms: _559  and  _561
REMARK  222  A    between atoms: _561  and  _562
REMARK  223  A    between atoms: _565  and  _567
REMARK  224  A    between atoms: _567  and  _568
REMARK  225  A    between atoms: _567  and  _570
REMARK  226  A    between atoms: _570  and  _571
REMARK  227  A    between atoms: _574  and  _576
REMARK  228  A    between atoms: _576  and  _577
REMARK  229  A    between atoms: _576  and  _579
REMARK  230  A    between atoms: _579  and  _580
REMARK  231  A    between atoms: _582  and  _584
REMARK  232  A    between atoms: _584  and  _585
REMARK  233  A    between atoms: _587  and  _589
REMARK  234  A    between atoms: _589  and  _590
REMARK  235  A    between atoms: _589  and  _592
REMARK  236  A    between atoms: _592  and  _593
REMARK  237  A    between atoms: _596  and  _598
REMARK  238  A    between atoms: _598  and  _599
REMARK  239  A    between atoms: _598  and  _601
REMARK                            x       y       z     vdW  Elec       q    Type
REMARK                         _______ _______ _______ _____ _____    ______ ____
ROOT
ATOM      1  O   HOH     1      -0.447  -4.099  17.508  0.00  0.00    +0.000 OA
ENDROOT
TORSDOF 0
REMARK  Name = ../refined-set-2016/3rux/3rux_pocket.pdb
REMARK  239 active torsions:
REMARK  status: ('A' for Active; 'I' for Inactive)
REMARK    1  A    between atoms: _1  and  _3
REMARK    2  A    between atoms: _3  and  _4
REMARK    3  A    between atoms: _3  and  _6
REMARK    4  A    between atoms: _6  and  _7
REMARK    5  A    between atoms: _10  and  _12
REMARK    6  A    between atoms: _12  and  _13
REMARK    7  A    between atoms: _15  and  _17
REMARK    8  A    between atoms: _17  and  _18
REMARK    9  A    between atoms: _17  and  _20
REMARK   10  A    between atoms: _20  and  _21
REMARK   11  A    between atoms: _23  and  _25
REMARK   12  A    between atoms: _25  and  _26
REMARK   13  A    between atoms: _25  and  _28
REMARK   14  A    between atoms: _28  and  _29
REMARK   15  A    between atoms: _32  and  _34
REMARK   16  A    between atoms: _34  and  _35
REMARK   17  A    between atoms: _34  and  _37
REMARK   18  A    between atoms: _37  and  _38
REMARK   19  A    between atoms: _43  and  _45
REMARK   20  A    between atoms: _45  and  _46
REMARK   21  A    between atoms: _49  and  _51
REMARK   22  A    between atoms: _51  and  _52
REMARK   23  A    between atoms: _51  and  _54
REMARK   24  A    between atoms: _54  and  _55
REMARK   25  A    between atoms: _58  and  _60
REMARK   26  A    between atoms: _60  and  _61
REMARK   27  A    between atoms: _60  and  _63
REMARK   28  A    between atoms: _63  and  _64
REMARK   29  A    between atoms: _67  and  _69
REMARK   30  A    between atoms: _69  and  _70
REMARK   31  A    between atoms: _69  and  _72
REMARK   32  A    between atoms: _72  and  _73
REMARK   33  A    between atoms: _76  and  _78
REMARK   34  A    between atoms: _78  and  _79
REMARK   35  A    between atoms: _78  and  _81
REMARK   36  A    between atoms: _81  and  _82
REMARK   37  A    between atoms: _85  and  _87
REMARK   38  A    between atoms: _87  and  _88
REMARK   39  A    between atoms: _91  and  _93
REMARK   40  A    between atoms: _93  and  _94
REMARK   41  A    between atoms: _93  and  _96
REMARK   42  A    between atoms: _96  and  _97
REMARK   43  A    between atoms: _97  and  _98
REMARK   44  A    between atoms: _103  and  _105
REMARK   45  A    between atoms: _105  and  _106
REMARK   46  A    between atoms: _105  and  _108
REMARK   47  A    between atoms: _108  and  _109
REMARK   48  A    between atoms: _112  and  _114
REMARK   49  A    between atoms: _114  and  _115
REMARK   50  A    between atoms: _118  and  _120
REMARK   51  A    between atoms: _120  and  _121
REMARK   52  A    between atoms: _123  and  _125
REMARK   53  A    between atoms: _125  and  _126
REMARK   54  A    between atoms: _125  and  _128
REMARK   55  A    between atoms: _128  and  _129
REMARK   56  A    between atoms: _129  and  _130
REMARK   57  A    between atoms: _130  and  _131
REMARK   58  A    between atoms: _140  and  _142
REMARK   59  A    between atoms: _142  and  _143
REMARK   60  A    between atoms: _145  and  _147
REMARK   61  A    between atoms: _147  and  _148
REMARK   62  A    between atoms: _147  and  _150
REMARK   63  A    between atoms: _150  and  _151
REMARK   64  A    between atoms: _151  and  _152
REMARK   65  A    between atoms: _152  and  _153
REMARK   66  A    between atoms: _162  and  _164
REMARK   67  A    between atoms: _164  and  _165
REMARK   68  A    between atoms: _164  and  _167
REMARK   69  A    between atoms: _167  and  _168
REMARK   70  A    between atoms: _173  and  _175
REMARK   71  A    between atoms: _175  and  _176
REMARK   72  A    between atoms: _178  and  _180
REMARK   73  A    between atoms: _180  and  _181
REMARK   74  A    between atoms: _180  and  _183
REMARK   75  A    between atoms: _183  and  _184
REMARK   76  A    between atoms: _184  and  _185
REMARK   77  A    between atoms: _185  and  _186
REMARK   78  A    between atoms: _195  and  _197
REMARK   79  A    between atoms: _197  and  _198
REMARK   80  A    between atoms: _200  and  _202
REMARK   81  A    between atoms: _202  and  _203
REMARK   82  A    between atoms: _202  and  _205
REMARK   83  A    between atoms: _205  and  _206
REMARK   84  A    between atoms: _216  and  _218
REMARK   85  A    between atoms: _218  and  _219
REMARK   86  A    between atoms: _222  and  _224
REMARK   87  A    between atoms: _224  and  _225
REMARK   88  A    between atoms: _228  and  _230
REMARK   89  A    between atoms: _230  and  _231
REMARK   90  A    between atoms: _230  and  _233
REMARK   91  A    between atoms: _233  and  _234
REMARK   92  A    between atoms: _237  and  _239
REMARK   93  A    between atoms: _239  and  _240
REMARK   94  A    between atoms: _239  and  _242
REMARK   95  A    between atoms: _242  and  _243
REMARK   96  A    between atoms: _243  and  _244
REMARK   97  A    between atoms: _249  and  _251
REMARK   98  A    between atoms: _251  and  _252
REMARK   99  A    between atoms: _251  and  _254
REMARK  100  A    between atoms: _254  and  _255
REMARK  101  A    between atoms: _258  and  _260
REMARK  102  A    between atoms: _260  and  _261
REMARK  103  A    between atoms: _260  and  _263
REMARK  104  A    between atoms: _263  and  _264
REMARK  105  A    between atoms: _267  and  _269
REMARK  106  A    between atoms: _269  and  _270
REMARK  107  A    between atoms: _269  and  _272
REMARK  108  A    between atoms: _272  and  _273
REMARK  109  A    between atoms: _276  and  _278
REMARK  110  A    between atoms: _278  and  _279
REMARK  111  A    between atoms: _278  and  _281
REMARK  112  A    between atoms: _281  and  _282
REMARK  113  A    between atoms: _284  and  _286
REMARK  114  A    between atoms: _286  and  _287
REMARK  115  A    between atoms: _286  and  _289
REMARK  116  A    between atoms: _292  and  _294
REMARK  117  A    between atoms: _294  and  _295
REMARK  118  A    between atoms: _294  and  _297
REMARK  119  A    between atoms: _297  and  _298
REMARK  120  A    between atoms: _298  and  _299
REMARK  121  A    between atoms: _299  and  _300
REMARK  122  A    between atoms: _300  and  _301
REMARK  123  A    between atoms: _305  and  _307
REMARK  124  A    between atoms: _307  and  _308
REMARK  125  A    between atoms: _307  and  _310
REMARK  126  A    between atoms: _310  and  _311
REMARK  127  A    between atoms: _322  and  _323
REMARK  128  A    between atoms: _328  and  _330
REMARK  129  A    between atoms: _330  and  _331
REMARK  130  A    between atoms: _330  and  _333
REMARK  131  A    between atoms: _333  and  _334
REMARK  132  A    between atoms: _339  and  _341
REMARK  133  A    between atoms: _341  and  _342
REMARK  134  A    between atoms: _341  and  _344
REMARK  135  A    between atoms: _344  and  _345
REMARK  136  A    between atoms: _348  and  _350
REMARK  137  A    between atoms: _350  and  _351
REMARK  138  A    between atoms: _350  and  _353
REMARK  139  A    between atoms: _356  and  _358
REMARK  140  A    between atoms: _358  and  _359
REMARK  141  A    between atoms: _361  and  _363
REMARK  142  A    between atoms: _363  and  _364
REMARK  143  A    between atoms: _363  and  _366
REMARK  144  A    between atoms: _366  and  _367
REMARK  145  A    between atoms: _367  and  _368
REMARK  146  A    between atoms: _368  and  _369
REMARK  147  A    between atoms: _369  and  _370
REMARK  148  A    between atoms: _374  and  _376
REMARK  149  A    between atoms: _376  and  _377
REMARK  150  A    between atoms: _376  and  _379
REMARK  151  A    between atoms: _379  and  _380
REMARK  152  A    between atoms: _383  and  _385
REMARK  153  A    between atoms: _385  and  _386
REMARK  154  A    between atoms: _389  and  _391
REMARK  155  A    between atoms: _391  and  _392
REMARK  156  A    between atoms: _394  and  _396
REMARK  157  A    between atoms: _396  and  _397
REMARK  158  A    between atoms: _396  and  _399
REMARK  159  A    between atoms: _399  and  _400
REMARK  160  A    between atoms: _403  and  _405
REMARK  161  A    between atoms: _405  and  _406
REMARK  162  A    between atoms: _405  and  _408
REMARK  163  A    between atoms: _408  and  _409
REMARK  164  A    between atoms: _412  and  _414
REMARK  165  A    between atoms: _414  and  _415
REMARK  166  A    between atoms: _418  and  _420
REMARK  167  A    between atoms: _420  and  _421
REMARK  168  A    between atoms: _420  and  _423
REMARK  169  A    between atoms: _423  and  _424
REMARK  170  A    between atoms: _424  and  _425
REMARK  171  A    between atoms: _428  and  _430
REMARK  172  A    between atoms: _430  and  _431
REMARK  173  A    between atoms: _430  and  _433
REMARK  174  A    between atoms: _436  and  _438
REMARK  175  A    between atoms: _438  and  _439
REMARK  176  A    between atoms: _438  and  _441
REMARK  177  A    between atoms: _441  and  _442
REMARK  178  A    between atoms: _445  and  _447
REMARK  179  A    between atoms: _447  and  _448
REMARK  180  A    between atoms: _450  and  _452
REMARK  181  A    between atoms: _452  and  _453
REMARK  182  A    between atoms: _452  and  _455
REMARK  183  A    between atoms: _458  and  _460
REMARK  184  A    between atoms: _460  and  _461
REMARK  185  A    between atoms: _463  and  _465
REMARK  186  A    between atoms: _465  and  _466
REMARK  187  A    between atoms: _465  and  _468
REMARK  188  A    between atoms: _468  and  _469
REMARK  189  A    between atoms: _472  and  _474
REMARK  190  A    between atoms: _474  and  _475
REMARK  191  A    between atoms: _474  and  _477
REMARK  192  A    between atoms: _477  and  _478
REMARK  193  A    between atoms: _483  and  _485
REMARK  194  A    between atoms: _485  and  _486
REMARK  195  A    between atoms: _485  and  _488
REMARK  196  A    between atoms: _491  and  _493
REMARK  197  A    between atoms: _493  and  _494
REMARK  198  A    between atoms: _493  and  _496
REMARK  199  A    between atoms: _496  and  _497
REMARK  200  A    between atoms: _497  and  _498
REMARK  201  A    between atoms: _503  and  _505
REMARK  202  A    between atoms: _505  and  _506
REMARK  203  A    between atoms: _510  and  _511
REMARK  204  A    between atoms: _516  and  _518
REMARK  205  A    between atoms: _518  and  _519
REMARK  206  A    between atoms: _518  and  _521
REMARK  207  A    between atoms: _521  and  _522
REMARK  208  A    between atoms: _522  and  _523
REMARK  209  A    between atoms: _526  and  _528
REMARK  210  A    between atoms: _528  and  _529
REMARK  211  A    between atoms: _528  and  _531
REMARK  212  A    between atoms: _534  and  _536
REMARK  213  A    between atoms: _536  and  _537
REMARK  214  A    between atoms: _536  and  _539
REMARK  215  A    between atoms: _539  and  _540
REMARK  216  A    between atoms: _544  and  _545
REMARK  217  A    between atoms: _550  and  _552
REMARK  218  A    between atoms: _552  and  _553
REMARK  219  A    between atoms: _552  and  _555
REMARK  220  A    between atoms: _555  and  _556
REMARK  221  A    between atoms: _559  and  _561
REMARK  222  A    between atoms: _561  and  _562
REMARK  223  A    between atoms: _565  and  _567
REMARK  224  A    between atoms: _567  and  _568
REMARK  225  A    between atoms: _567  and  _570
REMARK  226  A    between atoms: _570  and  _571
REMARK  227  A    between atoms: _574  and  _576
REMARK  228  A    between atoms: _576  and  _577
REMARK  229  A    between atoms: _576  and  _579
REMARK  230  A    between atoms: _579  and  _580
REMARK  231  A    between atoms: _582  and  _584
REMARK  232  A    between atoms: _584  and  _585
REMARK  233  A    between atoms: _587  and  _589
REMARK  234  A    between atoms: _589  and  _590
REMARK  235  A    between atoms: _589  and  _592
REMARK  236  A    between atoms: _592  and  _593
REMARK  237  A    between atoms: _596  and  _598
REMARK  238  A    between atoms: _598  and  _599
REMARK  239  A    between atoms: _598  and  _601
REMARK                            x       y       z     vdW  Elec       q    Type
REMARK                         _______ _______ _______ _____ _____    ______ ____
ROOT
ATOM      1  O   HOH     1      -6.743  -1.952   5.797  0.00  0.00    +0.000 OA
ENDROOT
TORSDOF 0
REMARK  Name = ../refined-set-2016/3rux/3rux_pocket.pdb
REMARK  239 active torsions:
REMARK  status: ('A' for Active; 'I' for Inactive)
REMARK    1  A    between atoms: _1  and  _3
REMARK    2  A    between atoms: _3  and  _4
REMARK    3  A    between atoms: _3  and  _6
REMARK    4  A    between atoms: _6  and  _7
REMARK    5  A    between atoms: _10  and  _12
REMARK    6  A    between atoms: _12  and  _13
REMARK    7  A    between atoms: _15  and  _17
REMARK    8  A    between atoms: _17  and  _18
REMARK    9  A    between atoms: _17  and  _20
REMARK   10  A    between atoms: _20  and  _21
REMARK   11  A    between atoms: _23  and  _25
REMARK   12  A    between atoms: _25  and  _26
REMARK   13  A    between atoms: _25  and  _28
REMARK   14  A    between atoms: _28  and  _29
REMARK   15  A    between atoms: _32  and  _34
REMARK   16  A    between atoms: _34  and  _35
REMARK   17  A    between atoms: _34  and  _37
REMARK   18  A    between atoms: _37  and  _38
REMARK   19  A    between atoms: _43  and  _45
REMARK   20  A    between atoms: _45  and  _46
REMARK   21  A    between atoms: _49  and  _51
REMARK   22  A    between atoms: _51  and  _52
REMARK   23  A    between atoms: _51  and  _54
REMARK   24  A    between atoms: _54  and  _55
REMARK   25  A    between atoms: _58  and  _60
REMARK   26  A    between atoms: _60  and  _61
REMARK   27  A    between atoms: _60  and  _63
REMARK   28  A    between atoms: _63  and  _64
REMARK   29  A    between atoms: _67  and  _69
REMARK   30  A    between atoms: _69  and  _70
REMARK   31  A    between atoms: _69  and  _72
REMARK   32  A    between atoms: _72  and  _73
REMARK   33  A    between atoms: _76  and  _78
REMARK   34  A    between atoms: _78  and  _79
REMARK   35  A    between atoms: _78  and  _81
REMARK   36  A    between atoms: _81  and  _82
REMARK   37  A    between atoms: _85  and  _87
REMARK   38  A    between atoms: _87  and  _88
REMARK   39  A    between atoms: _91  and  _93
REMARK   40  A    between atoms: _93  and  _94
REMARK   41  A    between atoms: _93  and  _96
REMARK   42  A    between atoms: _96  and  _97
REMARK   43  A    between atoms: _97  and  _98
REMARK   44  A    between atoms: _103  and  _105
REMARK   45  A    between atoms: _105  and  _106
REMARK   46  A    between atoms: _105  and  _108
REMARK   47  A    between atoms: _108  and  _109
REMARK   48  A    between atoms: _112  and  _114
REMARK   49  A    between atoms: _114  and  _115
REMARK   50  A    between atoms: _118  and  _120
REMARK   51  A    between atoms: _120  and  _121
REMARK   52  A    between atoms: _123  and  _125
REMARK   53  A    between atoms: _125  and  _126
REMARK   54  A    between atoms: _125  and  _128
REMARK   55  A    between atoms: _128  and  _129
REMARK   56  A    between atoms: _129  and  _130
REMARK   57  A    between atoms: _130  and  _131
REMARK   58  A    between atoms: _140  and  _142
REMARK   59  A    between atoms: _142  and  _143
REMARK   60  A    between atoms: _145  and  _147
REMARK   61  A    between atoms: _147  and  _148
REMARK   62  A    between atoms: _147  and  _150
REMARK   63  A    between atoms: _150  and  _151
REMARK   64  A    between atoms: _151  and  _152
REMARK   65  A    between atoms: _152  and  _153
REMARK   66  A    between atoms: _162  and  _164
REMARK   67  A    between atoms: _164  and  _165
REMARK   68  A    between atoms: _164  and  _167
REMARK   69  A    between atoms: _167  and  _168
REMARK   70  A    between atoms: _173  and  _175
REMARK   71  A    between atoms: _175  and  _176
REMARK   72  A    between atoms: _178  and  _180
REMARK   73  A    between atoms: _180  and  _181
REMARK   74  A    between atoms: _180  and  _183
REMARK   75  A    between atoms: _183  and  _184
REMARK   76  A    between atoms: _184  and  _185
REMARK   77  A    between atoms: _185  and  _186
REMARK   78  A    between atoms: _195  and  _197
REMARK   79  A    between atoms: _197  and  _198
REMARK   80  A    between atoms: _200  and  _202
REMARK   81  A    between atoms: _202  and  _203
REMARK   82  A    between atoms: _202  and  _205
REMARK   83  A    between atoms: _205  and  _206
REMARK   84  A    between atoms: _216  and  _218
REMARK   85  A    between atoms: _218  and  _219
REMARK   86  A    between atoms: _222  and  _224
REMARK   87  A    between atoms: _224  and  _225
REMARK   88  A    between atoms: _228  and  _230
REMARK   89  A    between atoms: _230  and  _231
REMARK   90  A    between atoms: _230  and  _233
REMARK   91  A    between atoms: _233  and  _234
REMARK   92  A    between atoms: _237  and  _239
REMARK   93  A    between atoms: _239  and  _240
REMARK   94  A    between atoms: _239  and  _242
REMARK   95  A    between atoms: _242  and  _243
REMARK   96  A    between atoms: _243  and  _244
REMARK   97  A    between atoms: _249  and  _251
REMARK   98  A    between atoms: _251  and  _252
REMARK   99  A    between atoms: _251  and  _254
REMARK  100  A    between atoms: _254  and  _255
REMARK  101  A    between atoms: _258  and  _260
REMARK  102  A    between atoms: _260  and  _261
REMARK  103  A    between atoms: _260  and  _263
REMARK  104  A    between atoms: _263  and  _264
REMARK  105  A    between atoms: _267  and  _269
REMARK  106  A    between atoms: _269  and  _270
REMARK  107  A    between atoms: _269  and  _272
REMARK  108  A    between atoms: _272  and  _273
REMARK  109  A    between atoms: _276  and  _278
REMARK  110  A    between atoms: _278  and  _279
REMARK  111  A    between atoms: _278  and  _281
REMARK  112  A    between atoms: _281  and  _282
REMARK  113  A    between atoms: _284  and  _286
REMARK  114  A    between atoms: _286  and  _287
REMARK  115  A    between atoms: _286  and  _289
REMARK  116  A    between atoms: _292  and  _294
REMARK  117  A    between atoms: _294  and  _295
REMARK  118  A    between atoms: _294  and  _297
REMARK  119  A    between atoms: _297  and  _298
REMARK  120  A    between atoms: _298  and  _299
REMARK  121  A    between atoms: _299  and  _300
REMARK  122  A    between atoms: _300  and  _301
REMARK  123  A    between atoms: _305  and  _307
REMARK  124  A    between atoms: _307  and  _308
REMARK  125  A    between atoms: _307  and  _310
REMARK  126  A    between atoms: _310  and  _311
REMARK  127  A    between atoms: _322  and  _323
REMARK  128  A    between atoms: _328  and  _330
REMARK  129  A    between atoms: _330  and  _331
REMARK  130  A    between atoms: _330  and  _333
REMARK  131  A    between atoms: _333  and  _334
REMARK  132  A    between atoms: _339  and  _341
REMARK  133  A    between atoms: _341  and  _342
REMARK  134  A    between atoms: _341  and  _344
REMARK  135  A    between atoms: _344  and  _345
REMARK  136  A    between atoms: _348  and  _350
REMARK  137  A    between atoms: _350  and  _351
REMARK  138  A    between atoms: _350  and  _353
REMARK  139  A    between atoms: _356  and  _358
REMARK  140  A    between atoms: _358  and  _359
REMARK  141  A    between atoms: _361  and  _363
REMARK  142  A    between atoms: _363  and  _364
REMARK  143  A    between atoms: _363  and  _366
REMARK  144  A    between atoms: _366  and  _367
REMARK  145  A    between atoms: _367  and  _368
REMARK  146  A    between atoms: _368  and  _369
REMARK  147  A    between atoms: _369  and  _370
REMARK  148  A    between atoms: _374  and  _376
REMARK  149  A    between atoms: _376  and  _377
REMARK  150  A    between atoms: _376  and  _379
REMARK  151  A    between atoms: _379  and  _380
REMARK  152  A    between atoms: _383  and  _385
REMARK  153  A    between atoms: _385  and  _386
REMARK  154  A    between atoms: _389  and  _391
REMARK  155  A    between atoms: _391  and  _392
REMARK  156  A    between atoms: _394  and  _396
REMARK  157  A    between atoms: _396  and  _397
REMARK  158  A    between atoms: _396  and  _399
REMARK  159  A    between atoms: _399  and  _400
REMARK  160  A    between atoms: _403  and  _405
REMARK  161  A    between atoms: _405  and  _406
REMARK  162  A    between atoms: _405  and  _408
REMARK  163  A    between atoms: _408  and  _409
REMARK  164  A    between atoms: _412  and  _414
REMARK  165  A    between atoms: _414  and  _415
REMARK  166  A    between atoms: _418  and  _420
REMARK  167  A    between atoms: _420  and  _421
REMARK  168  A    between atoms: _420  and  _423
REMARK  169  A    between atoms: _423  and  _424
REMARK  170  A    between atoms: _424  and  _425
REMARK  171  A    between atoms: _428  and  _430
REMARK  172  A    between atoms: _430  and  _431
REMARK  173  A    between atoms: _430  and  _433
REMARK  174  A    between atoms: _436  and  _438
REMARK  175  A    between atoms: _438  and  _439
REMARK  176  A    between atoms: _438  and  _441
REMARK  177  A    between atoms: _441  and  _442
REMARK  178  A    between atoms: _445  and  _447
REMARK  179  A    between atoms: _447  and  _448
REMARK  180  A    between atoms: _450  and  _452
REMARK  181  A    between atoms: _452  and  _453
REMARK  182  A    between atoms: _452  and  _455
REMARK  183  A    between atoms: _458  and  _460
REMARK  184  A    between atoms: _460  and  _461
REMARK  185  A    between atoms: _463  and  _465
REMARK  186  A    between atoms: _465  and  _466
REMARK  187  A    between atoms: _465  and  _468
REMARK  188  A    between atoms: _468  and  _469
REMARK  189  A    between atoms: _472  and  _474
REMARK  190  A    between atoms: _474  and  _475
REMARK  191  A    between atoms: _474  and  _477
REMARK  192  A    between atoms: _477  and  _478
REMARK  193  A    between atoms: _483  and  _485
REMARK  194  A    between atoms: _485  and  _486
REMARK  195  A    between atoms: _485  and  _488
REMARK  196  A    between atoms: _491  and  _493
REMARK  197  A    between atoms: _493  and  _494
REMARK  198  A    between atoms: _493  and  _496
REMARK  199  A    between atoms: _496  and  _497
REMARK  200  A    between atoms: _497  and  _498
REMARK  201  A    between atoms: _503  and  _505
REMARK  202  A    between atoms: _505  and  _506
REMARK  203  A    between atoms: _510  and  _511
REMARK  204  A    between atoms: _516  and  _518
REMARK  205  A    between atoms: _518  and  _519
REMARK  206  A    between atoms: _518  and  _521
REMARK  207  A    between atoms: _521  and  _522
REMARK  208  A    between atoms: _522  and  _523
REMARK  209  A    between atoms: _526  and  _528
REMARK  210  A    between atoms: _528  and  _529
REMARK  211  A    between atoms: _528  and  _531
REMARK  212  A    between atoms: _534  and  _536
REMARK  213  A    between atoms: _536  and  _537
REMARK  214  A    between atoms: _536  and  _539
REMARK  215  A    between atoms: _539  and  _540
REMARK  216  A    between atoms: _544  and  _545
REMARK  217  A    between atoms: _550  and  _552
REMARK  218  A    between atoms: _552  and  _553
REMARK  219  A    between atoms: _552  and  _555
REMARK  220  A    between atoms: _555  and  _556
REMARK  221  A    between atoms: _559  and  _561
REMARK  222  A    between atoms: _561  and  _562
REMARK  223  A    between atoms: _565  and  _567
REMARK  224  A    between atoms: _567  and  _568
REMARK  225  A    between atoms: _567  and  _570
REMARK  226  A    between atoms: _570  and  _571
REMARK  227  A    between atoms: _574  and  _576
REMARK  228  A    between atoms: _576  and  _577
REMARK  229  A    between atoms: _576  and  _579
REMARK  230  A    between atoms: _579  and  _580
REMARK  231  A    between atoms: _582  and  _584
REMARK  232  A    between atoms: _584  and  _585
REMARK  233  A    between atoms: _587  and  _589
REMARK  234  A    between atoms: _589  and  _590
REMARK  235  A    between atoms: _589  and  _592
REMARK  236  A    between atoms: _592  and  _593
REMARK  237  A    between atoms: _596  and  _598
REMARK  238  A    between atoms: _598  and  _599
REMARK  239  A    between atoms: _598  and  _601
REMARK                            x       y       z     vdW  Elec       q    Type
REMARK                         _______ _______ _______ _____ _____    ______ ____
ROOT
ATOM      1  O   HOH     1     -10.913  -1.594   4.926  0.00  0.00    +0.000 OA
ENDROOT
TORSDOF 0
REMARK  Name = ../refined-set-2016/3rux/3rux_pocket.pdb
REMARK  239 active torsions:
REMARK  status: ('A' for Active; 'I' for Inactive)
REMARK    1  A    between atoms: _1  and  _3
REMARK    2  A    between atoms: _3  and  _4
REMARK    3  A    between atoms: _3  and  _6
REMARK    4  A    between atoms: _6  and  _7
REMARK    5  A    between atoms: _10  and  _12
REMARK    6  A    between atoms: _12  and  _13
REMARK    7  A    between atoms: _15  and  _17
REMARK    8  A    between atoms: _17  and  _18
REMARK    9  A    between atoms: _17  and  _20
REMARK   10  A    between atoms: _20  and  _21
REMARK   11  A    between atoms: _23  and  _25
REMARK   12  A    between atoms: _25  and  _26
REMARK   13  A    between atoms: _25  and  _28
REMARK   14  A    between atoms: _28  and  _29
REMARK   15  A    between atoms: _32  and  _34
REMARK   16  A    between atoms: _34  and  _35
REMARK   17  A    between atoms: _34  and  _37
REMARK   18  A    between atoms: _37  and  _38
REMARK   19  A    between atoms: _43  and  _45
REMARK   20  A    between atoms: _45  and  _46
REMARK   21  A    between atoms: _49  and  _51
REMARK   22  A    between atoms: _51  and  _52
REMARK   23  A    between atoms: _51  and  _54
REMARK   24  A    between atoms: _54  and  _55
REMARK   25  A    between atoms: _58  and  _60
REMARK   26  A    between atoms: _60  and  _61
REMARK   27  A    between atoms: _60  and  _63
REMARK   28  A    between atoms: _63  and  _64
REMARK   29  A    between atoms: _67  and  _69
REMARK   30  A    between atoms: _69  and  _70
REMARK   31  A    between atoms: _69  and  _72
REMARK   32  A    between atoms: _72  and  _73
REMARK   33  A    between atoms: _76  and  _78
REMARK   34  A    between atoms: _78  and  _79
REMARK   35  A    between atoms: _78  and  _81
REMARK   36  A    between atoms: _81  and  _82
REMARK   37  A    between atoms: _85  and  _87
REMARK   38  A    between atoms: _87  and  _88
REMARK   39  A    between atoms: _91  and  _93
REMARK   40  A    between atoms: _93  and  _94
REMARK   41  A    between atoms: _93  and  _96
REMARK   42  A    between atoms: _96  and  _97
REMARK   43  A    between atoms: _97  and  _98
REMARK   44  A    between atoms: _103  and  _105
REMARK   45  A    between atoms: _105  and  _106
REMARK   46  A    between atoms: _105  and  _108
REMARK   47  A    between atoms: _108  and  _109
REMARK   48  A    between atoms: _112  and  _114
REMARK   49  A    between atoms: _114  and  _115
REMARK   50  A    between atoms: _118  and  _120
REMARK   51  A    between atoms: _120  and  _121
REMARK   52  A    between atoms: _123  and  _125
REMARK   53  A    between atoms: _125  and  _126
REMARK   54  A    between atoms: _125  and  _128
REMARK   55  A    between atoms: _128  and  _129
REMARK   56  A    between atoms: _129  and  _130
REMARK   57  A    between atoms: _130  and  _131
REMARK   58  A    between atoms: _140  and  _142
REMARK   59  A    between atoms: _142  and  _143
REMARK   60  A    between atoms: _145  and  _147
REMARK   61  A    between atoms: _147  and  _148
REMARK   62  A    between atoms: _147  and  _150
REMARK   63  A    between atoms: _150  and  _151
REMARK   64  A    between atoms: _151  and  _152
REMARK   65  A    between atoms: _152  and  _153
REMARK   66  A    between atoms: _162  and  _164
REMARK   67  A    between atoms: _164  and  _165
REMARK   68  A    between atoms: _164  and  _167
REMARK   69  A    between atoms: _167  and  _168
REMARK   70  A    between atoms: _173  and  _175
REMARK   71  A    between atoms: _175  and  _176
REMARK   72  A    between atoms: _178  and  _180
REMARK   73  A    between atoms: _180  and  _181
REMARK   74  A    between atoms: _180  and  _183
REMARK   75  A    between atoms: _183  and  _184
REMARK   76  A    between atoms: _184  and  _185
REMARK   77  A    between atoms: _185  and  _186
REMARK   78  A    between atoms: _195  and  _197
REMARK   79  A    between atoms: _197  and  _198
REMARK   80  A    between atoms: _200  and  _202
REMARK   81  A    between atoms: _202  and  _203
REMARK   82  A    between atoms: _202  and  _205
REMARK   83  A    between atoms: _205  and  _206
REMARK   84  A    between atoms: _216  and  _218
REMARK   85  A    between atoms: _218  and  _219
REMARK   86  A    between atoms: _222  and  _224
REMARK   87  A    between atoms: _224  and  _225
REMARK   88  A    between atoms: _228  and  _230
REMARK   89  A    between atoms: _230  and  _231
REMARK   90  A    between atoms: _230  and  _233
REMARK   91  A    between atoms: _233  and  _234
REMARK   92  A    between atoms: _237  and  _239
REMARK   93  A    between atoms: _239  and  _240
REMARK   94  A    between atoms: _239  and  _242
REMARK   95  A    between atoms: _242  and  _243
REMARK   96  A    between atoms: _243  and  _244
REMARK   97  A    between atoms: _249  and  _251
REMARK   98  A    between atoms: _251  and  _252
REMARK   99  A    between atoms: _251  and  _254
REMARK  100  A    between atoms: _254  and  _255
REMARK  101  A    between atoms: _258  and  _260
REMARK  102  A    between atoms: _260  and  _261
REMARK  103  A    between atoms: _260  and  _263
REMARK  104  A    between atoms: _263  and  _264
REMARK  105  A    between atoms: _267  and  _269
REMARK  106  A    between atoms: _269  and  _270
REMARK  107  A    between atoms: _269  and  _272
REMARK  108  A    between atoms: _272  and  _273
REMARK  109  A    between atoms: _276  and  _278
REMARK  110  A    between atoms: _278  and  _279
REMARK  111  A    between atoms: _278  and  _281
REMARK  112  A    between atoms: _281  and  _282
REMARK  113  A    between atoms: _284  and  _286
REMARK  114  A    between atoms: _286  and  _287
REMARK  115  A    between atoms: _286  and  _289
REMARK  116  A    between atoms: _292  and  _294
REMARK  117  A    between atoms: _294  and  _295
REMARK  118  A    between atoms: _294  and  _297
REMARK  119  A    between atoms: _297  and  _298
REMARK  120  A    between atoms: _298  and  _299
REMARK  121  A    between atoms: _299  and  _300
REMARK  122  A    between atoms: _300  and  _301
REMARK  123  A    between atoms: _305  and  _307
REMARK  124  A    between atoms: _307  and  _308
REMARK  125  A    between atoms: _307  and  _310
REMARK  126  A    between atoms: _310  and  _311
REMARK  127  A    between atoms: _322  and  _323
REMARK  128  A    between atoms: _328  and  _330
REMARK  129  A    between atoms: _330  and  _331
REMARK  130  A    between atoms: _330  and  _333
REMARK  131  A    between atoms: _333  and  _334
REMARK  132  A    between atoms: _339  and  _341
REMARK  133  A    between atoms: _341  and  _342
REMARK  134  A    between atoms: _341  and  _344
REMARK  135  A    between atoms: _344  and  _345
REMARK  136  A    between atoms: _348  and  _350
REMARK  137  A    between atoms: _350  and  _351
REMARK  138  A    between atoms: _350  and  _353
REMARK  139  A    between atoms: _356  and  _358
REMARK  140  A    between atoms: _358  and  _359
REMARK  141  A    between atoms: _361  and  _363
REMARK  142  A    between atoms: _363  and  _364
REMARK  143  A    between atoms: _363  and  _366
REMARK  144  A    between atoms: _366  and  _367
REMARK  145  A    between atoms: _367  and  _368
REMARK  146  A    between atoms: _368  and  _369
REMARK  147  A    between atoms: _369  and  _370
REMARK  148  A    between atoms: _374  and  _376
REMARK  149  A    between atoms: _376  and  _377
REMARK  150  A    between atoms: _376  and  _379
REMARK  151  A    between atoms: _379  and  _380
REMARK  152  A    between atoms: _383  and  _385
REMARK  153  A    between atoms: _385  and  _386
REMARK  154  A    between atoms: _389  and  _391
REMARK  155  A    between atoms: _391  and  _392
REMARK  156  A    between atoms: _394  and  _396
REMARK  157  A    between atoms: _396  and  _397
REMARK  158  A    between atoms: _396  and  _399
REMARK  159  A    between atoms: _399  and  _400
REMARK  160  A    between atoms: _403  and  _405
REMARK  161  A    between atoms: _405  and  _406
REMARK  162  A    between atoms: _405  and  _408
REMARK  163  A    between atoms: _408  and  _409
REMARK  164  A    between atoms: _412  and  _414
REMARK  165  A    between atoms: _414  and  _415
REMARK  166  A    between atoms: _418  and  _420
REMARK  167  A    between atoms: _420  and  _421
REMARK  168  A    between atoms: _420  and  _423
REMARK  169  A    between atoms: _423  and  _424
REMARK  170  A    between atoms: _424  and  _425
REMARK  171  A    between atoms: _428  and  _430
REMARK  172  A    between atoms: _430  and  _431
REMARK  173  A    between atoms: _430  and  _433
REMARK  174  A    between atoms: _436  and  _438
REMARK  175  A    between atoms: _438  and  _439
REMARK  176  A    between atoms: _438  and  _441
REMARK  177  A    between atoms: _441  and  _442
REMARK  178  A    between atoms: _445  and  _447
REMARK  179  A    between atoms: _447  and  _448
REMARK  180  A    between atoms: _450  and  _452
REMARK  181  A    between atoms: _452  and  _453
REMARK  182  A    between atoms: _452  and  _455
REMARK  183  A    between atoms: _458  and  _460
REMARK  184  A    between atoms: _460  and  _461
REMARK  185  A    between atoms: _463  and  _465
REMARK  186  A    between atoms: _465  and  _466
REMARK  187  A    between atoms: _465  and  _468
REMARK  188  A    between atoms: _468  and  _469
REMARK  189  A    between atoms: _472  and  _474
REMARK  190  A    between atoms: _474  and  _475
REMARK  191  A    between atoms: _474  and  _477
REMARK  192  A    between atoms: _477  and  _478
REMARK  193  A    between atoms: _483  and  _485
REMARK  194  A    between atoms: _485  and  _486
REMARK  195  A    between atoms: _485  and  _488
REMARK  196  A    between atoms: _491  and  _493
REMARK  197  A    between atoms: _493  and  _494
REMARK  198  A    between atoms: _493  and  _496
REMARK  199  A    between atoms: _496  and  _497
REMARK  200  A    between atoms: _497  and  _498
REMARK  201  A    between atoms: _503  and  _505
REMARK  202  A    between atoms: _505  and  _506
REMARK  203  A    between atoms: _510  and  _511
REMARK  204  A    between atoms: _516  and  _518
REMARK  205  A    between atoms: _518  and  _519
REMARK  206  A    between atoms: _518  and  _521
REMARK  207  A    between atoms: _521  and  _522
REMARK  208  A    between atoms: _522  and  _523
REMARK  209  A    between atoms: _526  and  _528
REMARK  210  A    between atoms: _528  and  _529
REMARK  211  A    between atoms: _528  and  _531
REMARK  212  A    between atoms: _534  and  _536
REMARK  213  A    between atoms: _536  and  _537
REMARK  214  A    between atoms: _536  and  _539
REMARK  215  A    between atoms: _539  and  _540
REMARK  216  A    between atoms: _544  and  _545
REMARK  217  A    between atoms: _550  and  _552
REMARK  218  A    between atoms: _552  and  _553
REMARK  219  A    between atoms: _552  and  _555
REMARK  220  A    between atoms: _555  and  _556
REMARK  221  A    between atoms: _559  and  _561
REMARK  222  A    between atoms: _561  and  _562
REMARK  223  A    between atoms: _565  and  _567
REMARK  224  A    between atoms: _567  and  _568
REMARK  225  A    between atoms: _567  and  _570
REMARK  226  A    between atoms: _570  and  _571
REMARK  227  A    between atoms: _574  and  _576
REMARK  228  A    between atoms: _576  and  _577
REMARK  229  A    between atoms: _576  and  _579
REMARK  230  A    between atoms: _579  and  _580
REMARK  231  A    between atoms: _582  and  _584
REMARK  232  A    between atoms: _584  and  _585
REMARK  233  A    between atoms: _587  and  _589
REMARK  234  A    between atoms: _589  and  _590
REMARK  235  A    between atoms: _589  and  _592
REMARK  236  A    between atoms: _592  and  _593
REMARK  237  A    between atoms: _596  and  _598
REMARK  238  A    between atoms: _598  and  _599
REMARK  239  A    between atoms: _598  and  _601
REMARK                            x       y       z     vdW  Elec       q    Type
REMARK                         _______ _______ _______ _____ _____    ______ ____
ROOT
ATOM      1  O   HOH     1     -12.366   1.237   6.149  0.00  0.00    +0.000 OA
ENDROOT
TORSDOF 0
REMARK  Name = ../refined-set-2016/3rux/3rux_pocket.pdb
REMARK  239 active torsions:
REMARK  status: ('A' for Active; 'I' for Inactive)
REMARK    1  A    between atoms: _1  and  _3
REMARK    2  A    between atoms: _3  and  _4
REMARK    3  A    between atoms: _3  and  _6
REMARK    4  A    between atoms: _6  and  _7
REMARK    5  A    between atoms: _10  and  _12
REMARK    6  A    between atoms: _12  and  _13
REMARK    7  A    between atoms: _15  and  _17
REMARK    8  A    between atoms: _17  and  _18
REMARK    9  A    between atoms: _17  and  _20
REMARK   10  A    between atoms: _20  and  _21
REMARK   11  A    between atoms: _23  and  _25
REMARK   12  A    between atoms: _25  and  _26
REMARK   13  A    between atoms: _25  and  _28
REMARK   14  A    between atoms: _28  and  _29
REMARK   15  A    between atoms: _32  and  _34
REMARK   16  A    between atoms: _34  and  _35
REMARK   17  A    between atoms: _34  and  _37
REMARK   18  A    between atoms: _37  and  _38
REMARK   19  A    between atoms: _43  and  _45
REMARK   20  A    between atoms: _45  and  _46
REMARK   21  A    between atoms: _49  and  _51
REMARK   22  A    between atoms: _51  and  _52
REMARK   23  A    between atoms: _51  and  _54
REMARK   24  A    between atoms: _54  and  _55
REMARK   25  A    between atoms: _58  and  _60
REMARK   26  A    between atoms: _60  and  _61
REMARK   27  A    between atoms: _60  and  _63
REMARK   28  A    between atoms: _63  and  _64
REMARK   29  A    between atoms: _67  and  _69
REMARK   30  A    between atoms: _69  and  _70
REMARK   31  A    between atoms: _69  and  _72
REMARK   32  A    between atoms: _72  and  _73
REMARK   33  A    between atoms: _76  and  _78
REMARK   34  A    between atoms: _78  and  _79
REMARK   35  A    between atoms: _78  and  _81
REMARK   36  A    between atoms: _81  and  _82
REMARK   37  A    between atoms: _85  and  _87
REMARK   38  A    between atoms: _87  and  _88
REMARK   39  A    between atoms: _91  and  _93
REMARK   40  A    between atoms: _93  and  _94
REMARK   41  A    between atoms: _93  and  _96
REMARK   42  A    between atoms: _96  and  _97
REMARK   43  A    between atoms: _97  and  _98
REMARK   44  A    between atoms: _103  and  _105
REMARK   45  A    between atoms: _105  and  _106
REMARK   46  A    between atoms: _105  and  _108
REMARK   47  A    between atoms: _108  and  _109
REMARK   48  A    between atoms: _112  and  _114
REMARK   49  A    between atoms: _114  and  _115
REMARK   50  A    between atoms: _118  and  _120
REMARK   51  A    between atoms: _120  and  _121
REMARK   52  A    between atoms: _123  and  _125
REMARK   53  A    between atoms: _125  and  _126
REMARK   54  A    between atoms: _125  and  _128
REMARK   55  A    between atoms: _128  and  _129
REMARK   56  A    between atoms: _129  and  _130
REMARK   57  A    between atoms: _130  and  _131
REMARK   58  A    between atoms: _140  and  _142
REMARK   59  A    between atoms: _142  and  _143
REMARK   60  A    between atoms: _145  and  _147
REMARK   61  A    between atoms: _147  and  _148
REMARK   62  A    between atoms: _147  and  _150
REMARK   63  A    between atoms: _150  and  _151
REMARK   64  A    between atoms: _151  and  _152
REMARK   65  A    between atoms: _152  and  _153
REMARK   66  A    between atoms: _162  and  _164
REMARK   67  A    between atoms: _164  and  _165
REMARK   68  A    between atoms: _164  and  _167
REMARK   69  A    between atoms: _167  and  _168
REMARK   70  A    between atoms: _173  and  _175
REMARK   71  A    between atoms: _175  and  _176
REMARK   72  A    between atoms: _178  and  _180
REMARK   73  A    between atoms: _180  and  _181
REMARK   74  A    between atoms: _180  and  _183
REMARK   75  A    between atoms: _183  and  _184
REMARK   76  A    between atoms: _184  and  _185
REMARK   77  A    between atoms: _185  and  _186
REMARK   78  A    between atoms: _195  and  _197
REMARK   79  A    between atoms: _197  and  _198
REMARK   80  A    between atoms: _200  and  _202
REMARK   81  A    between atoms: _202  and  _203
REMARK   82  A    between atoms: _202  and  _205
REMARK   83  A    between atoms: _205  and  _206
REMARK   84  A    between atoms: _216  and  _218
REMARK   85  A    between atoms: _218  and  _219
REMARK   86  A    between atoms: _222  and  _224
REMARK   87  A    between atoms: _224  and  _225
REMARK   88  A    between atoms: _228  and  _230
REMARK   89  A    between atoms: _230  and  _231
REMARK   90  A    between atoms: _230  and  _233
REMARK   91  A    between atoms: _233  and  _234
REMARK   92  A    between atoms: _237  and  _239
REMARK   93  A    between atoms: _239  and  _240
REMARK   94  A    between atoms: _239  and  _242
REMARK   95  A    between atoms: _242  and  _243
REMARK   96  A    between atoms: _243  and  _244
REMARK   97  A    between atoms: _249  and  _251
REMARK   98  A    between atoms: _251  and  _252
REMARK   99  A    between atoms: _251  and  _254
REMARK  100  A    between atoms: _254  and  _255
REMARK  101  A    between atoms: _258  and  _260
REMARK  102  A    between atoms: _260  and  _261
REMARK  103  A    between atoms: _260  and  _263
REMARK  104  A    between atoms: _263  and  _264
REMARK  105  A    between atoms: _267  and  _269
REMARK  106  A    between atoms: _269  and  _270
REMARK  107  A    between atoms: _269  and  _272
REMARK  108  A    between atoms: _272  and  _273
REMARK  109  A    between atoms: _276  and  _278
REMARK  110  A    between atoms: _278  and  _279
REMARK  111  A    between atoms: _278  and  _281
REMARK  112  A    between atoms: _281  and  _282
REMARK  113  A    between atoms: _284  and  _286
REMARK  114  A    between atoms: _286  and  _287
REMARK  115  A    between atoms: _286  and  _289
REMARK  116  A    between atoms: _292  and  _294
REMARK  117  A    between atoms: _294  and  _295
REMARK  118  A    between atoms: _294  and  _297
REMARK  119  A    between atoms: _297  and  _298
REMARK  120  A    between atoms: _298  and  _299
REMARK  121  A    between atoms: _299  and  _300
REMARK  122  A    between atoms: _300  and  _301
REMARK  123  A    between atoms: _305  and  _307
REMARK  124  A    between atoms: _307  and  _308
REMARK  125  A    between atoms: _307  and  _310
REMARK  126  A    between atoms: _310  and  _311
REMARK  127  A    between atoms: _322  and  _323
REMARK  128  A    between atoms: _328  and  _330
REMARK  129  A    between atoms: _330  and  _331
REMARK  130  A    between atoms: _330  and  _333
REMARK  131  A    between atoms: _333  and  _334
REMARK  132  A    between atoms: _339  and  _341
REMARK  133  A    between atoms: _341  and  _342
REMARK  134  A    between atoms: _341  and  _344
REMARK  135  A    between atoms: _344  and  _345
REMARK  136  A    between atoms: _348  and  _350
REMARK  137  A    between atoms: _350  and  _351
REMARK  138  A    between atoms: _350  and  _353
REMARK  139  A    between atoms: _356  and  _358
REMARK  140  A    between atoms: _358  and  _359
REMARK  141  A    between atoms: _361  and  _363
REMARK  142  A    between atoms: _363  and  _364
REMARK  143  A    between atoms: _363  and  _366
REMARK  144  A    between atoms: _366  and  _367
REMARK  145  A    between atoms: _367  and  _368
REMARK  146  A    between atoms: _368  and  _369
REMARK  147  A    between atoms: _369  and  _370
REMARK  148  A    between atoms: _374  and  _376
REMARK  149  A    between atoms: _376  and  _377
REMARK  150  A    between atoms: _376  and  _379
REMARK  151  A    between atoms: _379  and  _380
REMARK  152  A    between atoms: _383  and  _385
REMARK  153  A    between atoms: _385  and  _386
REMARK  154  A    between atoms: _389  and  _391
REMARK  155  A    between atoms: _391  and  _392
REMARK  156  A    between atoms: _394  and  _396
REMARK  157  A    between atoms: _396  and  _397
REMARK  158  A    between atoms: _396  and  _399
REMARK  159  A    between atoms: _399  and  _400
REMARK  160  A    between atoms: _403  and  _405
REMARK  161  A    between atoms: _405  and  _406
REMARK  162  A    between atoms: _405  and  _408
REMARK  163  A    between atoms: _408  and  _409
REMARK  164  A    between atoms: _412  and  _414
REMARK  165  A    between atoms: _414  and  _415
REMARK  166  A    between atoms: _418  and  _420
REMARK  167  A    between atoms: _420  and  _421
REMARK  168  A    between atoms: _420  and  _423
REMARK  169  A    between atoms: _423  and  _424
REMARK  170  A    between atoms: _424  and  _425
REMARK  171  A    between atoms: _428  and  _430
REMARK  172  A    between atoms: _430  and  _431
REMARK  173  A    between atoms: _430  and  _433
REMARK  174  A    between atoms: _436  and  _438
REMARK  175  A    between atoms: _438  and  _439
REMARK  176  A    between atoms: _438  and  _441
REMARK  177  A    between atoms: _441  and  _442
REMARK  178  A    between atoms: _445  and  _447
REMARK  179  A    between atoms: _447  and  _448
REMARK  180  A    between atoms: _450  and  _452
REMARK  181  A    between atoms: _452  and  _453
REMARK  182  A    between atoms: _452  and  _455
REMARK  183  A    between atoms: _458  and  _460
REMARK  184  A    between atoms: _460  and  _461
REMARK  185  A    between atoms: _463  and  _465
REMARK  186  A    between atoms: _465  and  _466
REMARK  187  A    between atoms: _465  and  _468
REMARK  188  A    between atoms: _468  and  _469
REMARK  189  A    between atoms: _472  and  _474
REMARK  190  A    between atoms: _474  and  _475
REMARK  191  A    between atoms: _474  and  _477
REMARK  192  A    between atoms: _477  and  _478
REMARK  193  A    between atoms: _483  and  _485
REMARK  194  A    between atoms: _485  and  _486
REMARK  195  A    between atoms: _485  and  _488
REMARK  196  A    between atoms: _491  and  _493
REMARK  197  A    between atoms: _493  and  _494
REMARK  198  A    between atoms: _493  and  _496
REMARK  199  A    between atoms: _496  and  _497
REMARK  200  A    between atoms: _497  and  _498
REMARK  201  A    between atoms: _503  and  _505
REMARK  202  A    between atoms: _505  and  _506
REMARK  203  A    between atoms: _510  and  _511
REMARK  204  A    between atoms: _516  and  _518
REMARK  205  A    between atoms: _518  and  _519
REMARK  206  A    between atoms: _518  and  _521
REMARK  207  A    between atoms: _521  and  _522
REMARK  208  A    between atoms: _522  and  _523
REMARK  209  A    between atoms: _526  and  _528
REMARK  210  A    between atoms: _528  and  _529
REMARK  211  A    between atoms: _528  and  _531
REMARK  212  A    between atoms: _534  and  _536
REMARK  213  A    between atoms: _536  and  _537
REMARK  214  A    between atoms: _536  and  _539
REMARK  215  A    between atoms: _539  and  _540
REMARK  216  A    between atoms: _544  and  _545
REMARK  217  A    between atoms: _550  and  _552
REMARK  218  A    between atoms: _552  and  _553
REMARK  219  A    between atoms: _552  and  _555
REMARK  220  A    between atoms: _555  and  _556
REMARK  221  A    between atoms: _559  and  _561
REMARK  222  A    between atoms: _561  and  _562
REMARK  223  A    between atoms: _565  and  _567
REMARK  224  A    between atoms: _567  and  _568
REMARK  225  A    between atoms: _567  and  _570
REMARK  226  A    between atoms: _570  and  _571
REMARK  227  A    between atoms: _574  and  _576
REMARK  228  A    between atoms: _576  and  _577
REMARK  229  A    between atoms: _576  and  _579
REMARK  230  A    between atoms: _579  and  _580
REMARK  231  A    between atoms: _582  and  _584
REMARK  232  A    between atoms: _584  and  _585
REMARK  233  A    between atoms: _587  and  _589
REMARK  234  A    between atoms: _589  and  _590
REMARK  235  A    between atoms: _589  and  _592
REMARK  236  A    between atoms: _592  and  _593
REMARK  237  A    between atoms: _596  and  _598
REMARK  238  A    between atoms: _598  and  _599
REMARK  239  A    between atoms: _598  and  _601
REMARK                            x       y       z     vdW  Elec       q    Type
REMARK                         _______ _______ _______ _____ _____    ______ ____
ROOT
ATOM      1  O   HOH     1       7.658  -9.695  16.691  0.00  0.00    +0.000 OA
ENDROOT
TORSDOF 0
REMARK  Name = ../refined-set-2016/3rux/3rux_pocket.pdb
REMARK  239 active torsions:
REMARK  status: ('A' for Active; 'I' for Inactive)
REMARK    1  A    between atoms: _1  and  _3
REMARK    2  A    between atoms: _3  and  _4
REMARK    3  A    between atoms: _3  and  _6
REMARK    4  A    between atoms: _6  and  _7
REMARK    5  A    between atoms: _10  and  _12
REMARK    6  A    between atoms: _12  and  _13
REMARK    7  A    between atoms: _15  and  _17
REMARK    8  A    between atoms: _17  and  _18
REMARK    9  A    between atoms: _17  and  _20
REMARK   10  A    between atoms: _20  and  _21
REMARK   11  A    between atoms: _23  and  _25
REMARK   12  A    between atoms: _25  and  _26
REMARK   13  A    between atoms: _25  and  _28
REMARK   14  A    between atoms: _28  and  _29
REMARK   15  A    between atoms: _32  and  _34
REMARK   16  A    between atoms: _34  and  _35
REMARK   17  A    between atoms: _34  and  _37
REMARK   18  A    between atoms: _37  and  _38
REMARK   19  A    between atoms: _43  and  _45
REMARK   20  A    between atoms: _45  and  _46
REMARK   21  A    between atoms: _49  and  _51
REMARK   22  A    between atoms: _51  and  _52
REMARK   23  A    between atoms: _51  and  _54
REMARK   24  A    between atoms: _54  and  _55
REMARK   25  A    between atoms: _58  and  _60
REMARK   26  A    between atoms: _60  and  _61
REMARK   27  A    between atoms: _60  and  _63
REMARK   28  A    between atoms: _63  and  _64
REMARK   29  A    between atoms: _67  and  _69
REMARK   30  A    between atoms: _69  and  _70
REMARK   31  A    between atoms: _69  and  _72
REMARK   32  A    between atoms: _72  and  _73
REMARK   33  A    between atoms: _76  and  _78
REMARK   34  A    between atoms: _78  and  _79
REMARK   35  A    between atoms: _78  and  _81
REMARK   36  A    between atoms: _81  and  _82
REMARK   37  A    between atoms: _85  and  _87
REMARK   38  A    between atoms: _87  and  _88
REMARK   39  A    between atoms: _91  and  _93
REMARK   40  A    between atoms: _93  and  _94
REMARK   41  A    between atoms: _93  and  _96
REMARK   42  A    between atoms: _96  and  _97
REMARK   43  A    between atoms: _97  and  _98
REMARK   44  A    between atoms: _103  and  _105
REMARK   45  A    between atoms: _105  and  _106
REMARK   46  A    between atoms: _105  and  _108
REMARK   47  A    between atoms: _108  and  _109
REMARK   48  A    between atoms: _112  and  _114
REMARK   49  A    between atoms: _114  and  _115
REMARK   50  A    between atoms: _118  and  _120
REMARK   51  A    between atoms: _120  and  _121
REMARK   52  A    between atoms: _123  and  _125
REMARK   53  A    between atoms: _125  and  _126
REMARK   54  A    between atoms: _125  and  _128
REMARK   55  A    between atoms: _128  and  _129
REMARK   56  A    between atoms: _129  and  _130
REMARK   57  A    between atoms: _130  and  _131
REMARK   58  A    between atoms: _140  and  _142
REMARK   59  A    between atoms: _142  and  _143
REMARK   60  A    between atoms: _145  and  _147
REMARK   61  A    between atoms: _147  and  _148
REMARK   62  A    between atoms: _147  and  _150
REMARK   63  A    between atoms: _150  and  _151
REMARK   64  A    between atoms: _151  and  _152
REMARK   65  A    between atoms: _152  and  _153
REMARK   66  A    between atoms: _162  and  _164
REMARK   67  A    between atoms: _164  and  _165
REMARK   68  A    between atoms: _164  and  _167
REMARK   69  A    between atoms: _167  and  _168
REMARK   70  A    between atoms: _173  and  _175
REMARK   71  A    between atoms: _175  and  _176
REMARK   72  A    between atoms: _178  and  _180
REMARK   73  A    between atoms: _180  and  _181
REMARK   74  A    between atoms: _180  and  _183
REMARK   75  A    between atoms: _183  and  _184
REMARK   76  A    between atoms: _184  and  _185
REMARK   77  A    between atoms: _185  and  _186
REMARK   78  A    between atoms: _195  and  _197
REMARK   79  A    between atoms: _197  and  _198
REMARK   80  A    between atoms: _200  and  _202
REMARK   81  A    between atoms: _202  and  _203
REMARK   82  A    between atoms: _202  and  _205
REMARK   83  A    between atoms: _205  and  _206
REMARK   84  A    between atoms: _216  and  _218
REMARK   85  A    between atoms: _218  and  _219
REMARK   86  A    between atoms: _222  and  _224
REMARK   87  A    between atoms: _224  and  _225
REMARK   88  A    between atoms: _228  and  _230
REMARK   89  A    between atoms: _230  and  _231
REMARK   90  A    between atoms: _230  and  _233
REMARK   91  A    between atoms: _233  and  _234
REMARK   92  A    between atoms: _237  and  _239
REMARK   93  A    between atoms: _239  and  _240
REMARK   94  A    between atoms: _239  and  _242
REMARK   95  A    between atoms: _242  and  _243
REMARK   96  A    between atoms: _243  and  _244
REMARK   97  A    between atoms: _249  and  _251
REMARK   98  A    between atoms: _251  and  _252
REMARK   99  A    between atoms: _251  and  _254
REMARK  100  A    between atoms: _254  and  _255
REMARK  101  A    between atoms: _258  and  _260
REMARK  102  A    between atoms: _260  and  _261
REMARK  103  A    between atoms: _260  and  _263
REMARK  104  A    between atoms: _263  and  _264
REMARK  105  A    between atoms: _267  and  _269
REMARK  106  A    between atoms: _269  and  _270
REMARK  107  A    between atoms: _269  and  _272
REMARK  108  A    between atoms: _272  and  _273
REMARK  109  A    between atoms: _276  and  _278
REMARK  110  A    between atoms: _278  and  _279
REMARK  111  A    between atoms: _278  and  _281
REMARK  112  A    between atoms: _281  and  _282
REMARK  113  A    between atoms: _284  and  _286
REMARK  114  A    between atoms: _286  and  _287
REMARK  115  A    between atoms: _286  and  _289
REMARK  116  A    between atoms: _292  and  _294
REMARK  117  A    between atoms: _294  and  _295
REMARK  118  A    between atoms: _294  and  _297
REMARK  119  A    between atoms: _297  and  _298
REMARK  120  A    between atoms: _298  and  _299
REMARK  121  A    between atoms: _299  and  _300
REMARK  122  A    between atoms: _300  and  _301
REMARK  123  A    between atoms: _305  and  _307
REMARK  124  A    between atoms: _307  and  _308
REMARK  125  A    between atoms: _307  and  _310
REMARK  126  A    between atoms: _310  and  _311
REMARK  127  A    between atoms: _322  and  _323
REMARK  128  A    between atoms: _328  and  _330
REMARK  129  A    between atoms: _330  and  _331
REMARK  130  A    between atoms: _330  and  _333
REMARK  131  A    between atoms: _333  and  _334
REMARK  132  A    between atoms: _339  and  _341
REMARK  133  A    between atoms: _341  and  _342
REMARK  134  A    between atoms: _341  and  _344
REMARK  135  A    between atoms: _344  and  _345
REMARK  136  A    between atoms: _348  and  _350
REMARK  137  A    between atoms: _350  and  _351
REMARK  138  A    between atoms: _350  and  _353
REMARK  139  A    between atoms: _356  and  _358
REMARK  140  A    between atoms: _358  and  _359
REMARK  141  A    between atoms: _361  and  _363
REMARK  142  A    between atoms: _363  and  _364
REMARK  143  A    between atoms: _363  and  _366
REMARK  144  A    between atoms: _366  and  _367
REMARK  145  A    between atoms: _367  and  _368
REMARK  146  A    between atoms: _368  and  _369
REMARK  147  A    between atoms: _369  and  _370
REMARK  148  A    between atoms: _374  and  _376
REMARK  149  A    between atoms: _376  and  _377
REMARK  150  A    between atoms: _376  and  _379
REMARK  151  A    between atoms: _379  and  _380
REMARK  152  A    between atoms: _383  and  _385
REMARK  153  A    between atoms: _385  and  _386
REMARK  154  A    between atoms: _389  and  _391
REMARK  155  A    between atoms: _391  and  _392
REMARK  156  A    between atoms: _394  and  _396
REMARK  157  A    between atoms: _396  and  _397
REMARK  158  A    between atoms: _396  and  _399
REMARK  159  A    between atoms: _399  and  _400
REMARK  160  A    between atoms: _403  and  _405
REMARK  161  A    between atoms: _405  and  _406
REMARK  162  A    between atoms: _405  and  _408
REMARK  163  A    between atoms: _408  and  _409
REMARK  164  A    between atoms: _412  and  _414
REMARK  165  A    between atoms: _414  and  _415
REMARK  166  A    between atoms: _418  and  _420
REMARK  167  A    between atoms: _420  and  _421
REMARK  168  A    between atoms: _420  and  _423
REMARK  169  A    between atoms: _423  and  _424
REMARK  170  A    between atoms: _424  and  _425
REMARK  171  A    between atoms: _428  and  _430
REMARK  172  A    between atoms: _430  and  _431
REMARK  173  A    between atoms: _430  and  _433
REMARK  174  A    between atoms: _436  and  _438
REMARK  175  A    between atoms: _438  and  _439
REMARK  176  A    between atoms: _438  and  _441
REMARK  177  A    between atoms: _441  and  _442
REMARK  178  A    between atoms: _445  and  _447
REMARK  179  A    between atoms: _447  and  _448
REMARK  180  A    between atoms: _450  and  _452
REMARK  181  A    between atoms: _452  and  _453
REMARK  182  A    between atoms: _452  and  _455
REMARK  183  A    between atoms: _458  and  _460
REMARK  184  A    between atoms: _460  and  _461
REMARK  185  A    between atoms: _463  and  _465
REMARK  186  A    between atoms: _465  and  _466
REMARK  187  A    between atoms: _465  and  _468
REMARK  188  A    between atoms: _468  and  _469
REMARK  189  A    between atoms: _472  and  _474
REMARK  190  A    between atoms: _474  and  _475
REMARK  191  A    between atoms: _474  and  _477
REMARK  192  A    between atoms: _477  and  _478
REMARK  193  A    between atoms: _483  and  _485
REMARK  194  A    between atoms: _485  and  _486
REMARK  195  A    between atoms: _485  and  _488
REMARK  196  A    between atoms: _491  and  _493
REMARK  197  A    between atoms: _493  and  _494
REMARK  198  A    between atoms: _493  and  _496
REMARK  199  A    between atoms: _496  and  _497
REMARK  200  A    between atoms: _497  and  _498
REMARK  201  A    between atoms: _503  and  _505
REMARK  202  A    between atoms: _505  and  _506
REMARK  203  A    between atoms: _510  and  _511
REMARK  204  A    between atoms: _516  and  _518
REMARK  205  A    between atoms: _518  and  _519
REMARK  206  A    between atoms: _518  and  _521
REMARK  207  A    between atoms: _521  and  _522
REMARK  208  A    between atoms: _522  and  _523
REMARK  209  A    between atoms: _526  and  _528
REMARK  210  A    between atoms: _528  and  _529
REMARK  211  A    between atoms: _528  and  _531
REMARK  212  A    between atoms: _534  and  _536
REMARK  213  A    between atoms: _536  and  _537
REMARK  214  A    between atoms: _536  and  _539
REMARK  215  A    between atoms: _539  and  _540
REMARK  216  A    between atoms: _544  and  _545
REMARK  217  A    between atoms: _550  and  _552
REMARK  218  A    between atoms: _552  and  _553
REMARK  219  A    between atoms: _552  and  _555
REMARK  220  A    between atoms: _555  and  _556
REMARK  221  A    between atoms: _559  and  _561
REMARK  222  A    between atoms: _561  and  _562
REMARK  223  A    between atoms: _565  and  _567
REMARK  224  A    between atoms: _567  and  _568
REMARK  225  A    between atoms: _567  and  _570
REMARK  226  A    between atoms: _570  and  _571
REMARK  227  A    between atoms: _574  and  _576
REMARK  228  A    between atoms: _576  and  _577
REMARK  229  A    between atoms: _576  and  _579
REMARK  230  A    between atoms: _579  and  _580
REMARK  231  A    between atoms: _582  and  _584
REMARK  232  A    between atoms: _584  and  _585
REMARK  233  A    between atoms: _587  and  _589
REMARK  234  A    between atoms: _589  and  _590
REMARK  235  A    between atoms: _589  and  _592
REMARK  236  A    between atoms: _592  and  _593
REMARK  237  A    between atoms: _596  and  _598
REMARK  238  A    between atoms: _598  and  _599
REMARK  239  A    between atoms: _598  and  _601
REMARK                            x       y       z     vdW  Elec       q    Type
REMARK                         _______ _______ _______ _____ _____    ______ ____
ROOT
ATOM      1  O   HOH     1      -4.435 -11.598   1.566  0.00  0.00    +0.000 OA
ENDROOT
TORSDOF 0
REMARK  Name = ../refined-set-2016/3rux/3rux_pocket.pdb
REMARK  239 active torsions:
REMARK  status: ('A' for Active; 'I' for Inactive)
REMARK    1  A    between atoms: _1  and  _3
REMARK    2  A    between atoms: _3  and  _4
REMARK    3  A    between atoms: _3  and  _6
REMARK    4  A    between atoms: _6  and  _7
REMARK    5  A    between atoms: _10  and  _12
REMARK    6  A    between atoms: _12  and  _13
REMARK    7  A    between atoms: _15  and  _17
REMARK    8  A    between atoms: _17  and  _18
REMARK    9  A    between atoms: _17  and  _20
REMARK   10  A    between atoms: _20  and  _21
REMARK   11  A    between atoms: _23  and  _25
REMARK   12  A    between atoms: _25  and  _26
REMARK   13  A    between atoms: _25  and  _28
REMARK   14  A    between atoms: _28  and  _29
REMARK   15  A    between atoms: _32  and  _34
REMARK   16  A    between atoms: _34  and  _35
REMARK   17  A    between atoms: _34  and  _37
REMARK   18  A    between atoms: _37  and  _38
REMARK   19  A    between atoms: _43  and  _45
REMARK   20  A    between atoms: _45  and  _46
REMARK   21  A    between atoms: _49  and  _51
REMARK   22  A    between atoms: _51  and  _52
REMARK   23  A    between atoms: _51  and  _54
REMARK   24  A    between atoms: _54  and  _55
REMARK   25  A    between atoms: _58  and  _60
REMARK   26  A    between atoms: _60  and  _61
REMARK   27  A    between atoms: _60  and  _63
REMARK   28  A    between atoms: _63  and  _64
REMARK   29  A    between atoms: _67  and  _69
REMARK   30  A    between atoms: _69  and  _70
REMARK   31  A    between atoms: _69  and  _72
REMARK   32  A    between atoms: _72  and  _73
REMARK   33  A    between atoms: _76  and  _78
REMARK   34  A    between atoms: _78  and  _79
REMARK   35  A    between atoms: _78  and  _81
REMARK   36  A    between atoms: _81  and  _82
REMARK   37  A    between atoms: _85  and  _87
REMARK   38  A    between atoms: _87  and  _88
REMARK   39  A    between atoms: _91  and  _93
REMARK   40  A    between atoms: _93  and  _94
REMARK   41  A    between atoms: _93  and  _96
REMARK   42  A    between atoms: _96  and  _97
REMARK   43  A    between atoms: _97  and  _98
REMARK   44  A    between atoms: _103  and  _105
REMARK   45  A    between atoms: _105  and  _106
REMARK   46  A    between atoms: _105  and  _108
REMARK   47  A    between atoms: _108  and  _109
REMARK   48  A    between atoms: _112  and  _114
REMARK   49  A    between atoms: _114  and  _115
REMARK   50  A    between atoms: _118  and  _120
REMARK   51  A    between atoms: _120  and  _121
REMARK   52  A    between atoms: _123  and  _125
REMARK   53  A    between atoms: _125  and  _126
REMARK   54  A    between atoms: _125  and  _128
REMARK   55  A    between atoms: _128  and  _129
REMARK   56  A    between atoms: _129  and  _130
REMARK   57  A    between atoms: _130  and  _131
REMARK   58  A    between atoms: _140  and  _142
REMARK   59  A    between atoms: _142  and  _143
REMARK   60  A    between atoms: _145  and  _147
REMARK   61  A    between atoms: _147  and  _148
REMARK   62  A    between atoms: _147  and  _150
REMARK   63  A    between atoms: _150  and  _151
REMARK   64  A    between atoms: _151  and  _152
REMARK   65  A    between atoms: _152  and  _153
REMARK   66  A    between atoms: _162  and  _164
REMARK   67  A    between atoms: _164  and  _165
REMARK   68  A    between atoms: _164  and  _167
REMARK   69  A    between atoms: _167  and  _168
REMARK   70  A    between atoms: _173  and  _175
REMARK   71  A    between atoms: _175  and  _176
REMARK   72  A    between atoms: _178  and  _180
REMARK   73  A    between atoms: _180  and  _181
REMARK   74  A    between atoms: _180  and  _183
REMARK   75  A    between atoms: _183  and  _184
REMARK   76  A    between atoms: _184  and  _185
REMARK   77  A    between atoms: _185  and  _186
REMARK   78  A    between atoms: _195  and  _197
REMARK   79  A    between atoms: _197  and  _198
REMARK   80  A    between atoms: _200  and  _202
REMARK   81  A    between atoms: _202  and  _203
REMARK   82  A    between atoms: _202  and  _205
REMARK   83  A    between atoms: _205  and  _206
REMARK   84  A    between atoms: _216  and  _218
REMARK   85  A    between atoms: _218  and  _219
REMARK   86  A    between atoms: _222  and  _224
REMARK   87  A    between atoms: _224  and  _225
REMARK   88  A    between atoms: _228  and  _230
REMARK   89  A    between atoms: _230  and  _231
REMARK   90  A    between atoms: _230  and  _233
REMARK   91  A    between atoms: _233  and  _234
REMARK   92  A    between atoms: _237  and  _239
REMARK   93  A    between atoms: _239  and  _240
REMARK   94  A    between atoms: _239  and  _242
REMARK   95  A    between atoms: _242  and  _243
REMARK   96  A    between atoms: _243  and  _244
REMARK   97  A    between atoms: _249  and  _251
REMARK   98  A    between atoms: _251  and  _252
REMARK   99  A    between atoms: _251  and  _254
REMARK  100  A    between atoms: _254  and  _255
REMARK  101  A    between atoms: _258  and  _260
REMARK  102  A    between atoms: _260  and  _261
REMARK  103  A    between atoms: _260  and  _263
REMARK  104  A    between atoms: _263  and  _264
REMARK  105  A    between atoms: _267  and  _269
REMARK  106  A    between atoms: _269  and  _270
REMARK  107  A    between atoms: _269  and  _272
REMARK  108  A    between atoms: _272  and  _273
REMARK  109  A    between atoms: _276  and  _278
REMARK  110  A    between atoms: _278  and  _279
REMARK  111  A    between atoms: _278  and  _281
REMARK  112  A    between atoms: _281  and  _282
REMARK  113  A    between atoms: _284  and  _286
REMARK  114  A    between atoms: _286  and  _287
REMARK  115  A    between atoms: _286  and  _289
REMARK  116  A    between atoms: _292  and  _294
REMARK  117  A    between atoms: _294  and  _295
REMARK  118  A    between atoms: _294  and  _297
REMARK  119  A    between atoms: _297  and  _298
REMARK  120  A    between atoms: _298  and  _299
REMARK  121  A    between atoms: _299  and  _300
REMARK  122  A    between atoms: _300  and  _301
REMARK  123  A    between atoms: _305  and  _307
REMARK  124  A    between atoms: _307  and  _308
REMARK  125  A    between atoms: _307  and  _310
REMARK  126  A    between atoms: _310  and  _311
REMARK  127  A    between atoms: _322  and  _323
REMARK  128  A    between atoms: _328  and  _330
REMARK  129  A    between atoms: _330  and  _331
REMARK  130  A    between atoms: _330  and  _333
REMARK  131  A    between atoms: _333  and  _334
REMARK  132  A    between atoms: _339  and  _341
REMARK  133  A    between atoms: _341  and  _342
REMARK  134  A    between atoms: _341  and  _344
REMARK  135  A    between atoms: _344  and  _345
REMARK  136  A    between atoms: _348  and  _350
REMARK  137  A    between atoms: _350  and  _351
REMARK  138  A    between atoms: _350  and  _353
REMARK  139  A    between atoms: _356  and  _358
REMARK  140  A    between atoms: _358  and  _359
REMARK  141  A    between atoms: _361  and  _363
REMARK  142  A    between atoms: _363  and  _364
REMARK  143  A    between atoms: _363  and  _366
REMARK  144  A    between atoms: _366  and  _367
REMARK  145  A    between atoms: _367  and  _368
REMARK  146  A    between atoms: _368  and  _369
REMARK  147  A    between atoms: _369  and  _370
REMARK  148  A    between atoms: _374  and  _376
REMARK  149  A    between atoms: _376  and  _377
REMARK  150  A    between atoms: _376  and  _379
REMARK  151  A    between atoms: _379  and  _380
REMARK  152  A    between atoms: _383  and  _385
REMARK  153  A    between atoms: _385  and  _386
REMARK  154  A    between atoms: _389  and  _391
REMARK  155  A    between atoms: _391  and  _392
REMARK  156  A    between atoms: _394  and  _396
REMARK  157  A    between atoms: _396  and  _397
REMARK  158  A    between atoms: _396  and  _399
REMARK  159  A    between atoms: _399  and  _400
REMARK  160  A    between atoms: _403  and  _405
REMARK  161  A    between atoms: _405  and  _406
REMARK  162  A    between atoms: _405  and  _408
REMARK  163  A    between atoms: _408  and  _409
REMARK  164  A    between atoms: _412  and  _414
REMARK  165  A    between atoms: _414  and  _415
REMARK  166  A    between atoms: _418  and  _420
REMARK  167  A    between atoms: _420  and  _421
REMARK  168  A    between atoms: _420  and  _423
REMARK  169  A    between atoms: _423  and  _424
REMARK  170  A    between atoms: _424  and  _425
REMARK  171  A    between atoms: _428  and  _430
REMARK  172  A    between atoms: _430  and  _431
REMARK  173  A    between atoms: _430  and  _433
REMARK  174  A    between atoms: _436  and  _438
REMARK  175  A    between atoms: _438  and  _439
REMARK  176  A    between atoms: _438  and  _441
REMARK  177  A    between atoms: _441  and  _442
REMARK  178  A    between atoms: _445  and  _447
REMARK  179  A    between atoms: _447  and  _448
REMARK  180  A    between atoms: _450  and  _452
REMARK  181  A    between atoms: _452  and  _453
REMARK  182  A    between atoms: _452  and  _455
REMARK  183  A    between atoms: _458  and  _460
REMARK  184  A    between atoms: _460  and  _461
REMARK  185  A    between atoms: _463  and  _465
REMARK  186  A    between atoms: _465  and  _466
REMARK  187  A    between atoms: _465  and  _468
REMARK  188  A    between atoms: _468  and  _469
REMARK  189  A    between atoms: _472  and  _474
REMARK  190  A    between atoms: _474  and  _475
REMARK  191  A    between atoms: _474  and  _477
REMARK  192  A    between atoms: _477  and  _478
REMARK  193  A    between atoms: _483  and  _485
REMARK  194  A    between atoms: _485  and  _486
REMARK  195  A    between atoms: _485  and  _488
REMARK  196  A    between atoms: _491  and  _493
REMARK  197  A    between atoms: _493  and  _494
REMARK  198  A    between atoms: _493  and  _496
REMARK  199  A    between atoms: _496  and  _497
REMARK  200  A    between atoms: _497  and  _498
REMARK  201  A    between atoms: _503  and  _505
REMARK  202  A    between atoms: _505  and  _506
REMARK  203  A    between atoms: _510  and  _511
REMARK  204  A    between atoms: _516  and  _518
REMARK  205  A    between atoms: _518  and  _519
REMARK  206  A    between atoms: _518  and  _521
REMARK  207  A    between atoms: _521  and  _522
REMARK  208  A    between atoms: _522  and  _523
REMARK  209  A    between atoms: _526  and  _528
REMARK  210  A    between atoms: _528  and  _529
REMARK  211  A    between atoms: _528  and  _531
REMARK  212  A    between atoms: _534  and  _536
REMARK  213  A    between atoms: _536  and  _537
REMARK  214  A    between atoms: _536  and  _539
REMARK  215  A    between atoms: _539  and  _540
REMARK  216  A    between atoms: _544  and  _545
REMARK  217  A    between atoms: _550  and  _552
REMARK  218  A    between atoms: _552  and  _553
REMARK  219  A    between atoms: _552  and  _555
REMARK  220  A    between atoms: _555  and  _556
REMARK  221  A    between atoms: _559  and  _561
REMARK  222  A    between atoms: _561  and  _562
REMARK  223  A    between atoms: _565  and  _567
REMARK  224  A    between atoms: _567  and  _568
REMARK  225  A    between atoms: _567  and  _570
REMARK  226  A    between atoms: _570  and  _571
REMARK  227  A    between atoms: _574  and  _576
REMARK  228  A    between atoms: _576  and  _577
REMARK  229  A    between atoms: _576  and  _579
REMARK  230  A    between atoms: _579  and  _580
REMARK  231  A    between atoms: _582  and  _584
REMARK  232  A    between atoms: _584  and  _585
REMARK  233  A    between atoms: _587  and  _589
REMARK  234  A    between atoms: _589  and  _590
REMARK  235  A    between atoms: _589  and  _592
REMARK  236  A    between atoms: _592  and  _593
REMARK  237  A    between atoms: _596  and  _598
REMARK  238  A    between atoms: _598  and  _599
REMARK  239  A    between atoms: _598  and  _601
REMARK                            x       y       z     vdW  Elec       q    Type
REMARK                         _______ _______ _______ _____ _____    ______ ____
ROOT
ATOM      1  O   HOH     1      -2.697   6.962  11.396  0.00  0.00    +0.000 OA
ENDROOT
TORSDOF 0
REMARK  Name = ../refined-set-2016/3rux/3rux_pocket.pdb
REMARK  239 active torsions:
REMARK  status: ('A' for Active; 'I' for Inactive)
REMARK    1  A    between atoms: _1  and  _3
REMARK    2  A    between atoms: _3  and  _4
REMARK    3  A    between atoms: _3  and  _6
REMARK    4  A    between atoms: _6  and  _7
REMARK    5  A    between atoms: _10  and  _12
REMARK    6  A    between atoms: _12  and  _13
REMARK    7  A    between atoms: _15  and  _17
REMARK    8  A    between atoms: _17  and  _18
REMARK    9  A    between atoms: _17  and  _20
REMARK   10  A    between atoms: _20  and  _21
REMARK   11  A    between atoms: _23  and  _25
REMARK   12  A    between atoms: _25  and  _26
REMARK   13  A    between atoms: _25  and  _28
REMARK   14  A    between atoms: _28  and  _29
REMARK   15  A    between atoms: _32  and  _34
REMARK   16  A    between atoms: _34  and  _35
REMARK   17  A    between atoms: _34  and  _37
REMARK   18  A    between atoms: _37  and  _38
REMARK   19  A    between atoms: _43  and  _45
REMARK   20  A    between atoms: _45  and  _46
REMARK   21  A    between atoms: _49  and  _51
REMARK   22  A    between atoms: _51  and  _52
REMARK   23  A    between atoms: _51  and  _54
REMARK   24  A    between atoms: _54  and  _55
REMARK   25  A    between atoms: _58  and  _60
REMARK   26  A    between atoms: _60  and  _61
REMARK   27  A    between atoms: _60  and  _63
REMARK   28  A    between atoms: _63  and  _64
REMARK   29  A    between atoms: _67  and  _69
REMARK   30  A    between atoms: _69  and  _70
REMARK   31  A    between atoms: _69  and  _72
REMARK   32  A    between atoms: _72  and  _73
REMARK   33  A    between atoms: _76  and  _78
REMARK   34  A    between atoms: _78  and  _79
REMARK   35  A    between atoms: _78  and  _81
REMARK   36  A    between atoms: _81  and  _82
REMARK   37  A    between atoms: _85  and  _87
REMARK   38  A    between atoms: _87  and  _88
REMARK   39  A    between atoms: _91  and  _93
REMARK   40  A    between atoms: _93  and  _94
REMARK   41  A    between atoms: _93  and  _96
REMARK   42  A    between atoms: _96  and  _97
REMARK   43  A    between atoms: _97  and  _98
REMARK   44  A    between atoms: _103  and  _105
REMARK   45  A    between atoms: _105  and  _106
REMARK   46  A    between atoms: _105  and  _108
REMARK   47  A    between atoms: _108  and  _109
REMARK   48  A    between atoms: _112  and  _114
REMARK   49  A    between atoms: _114  and  _115
REMARK   50  A    between atoms: _118  and  _120
REMARK   51  A    between atoms: _120  and  _121
REMARK   52  A    between atoms: _123  and  _125
REMARK   53  A    between atoms: _125  and  _126
REMARK   54  A    between atoms: _125  and  _128
REMARK   55  A    between atoms: _128  and  _129
REMARK   56  A    between atoms: _129  and  _130
REMARK   57  A    between atoms: _130  and  _131
REMARK   58  A    between atoms: _140  and  _142
REMARK   59  A    between atoms: _142  and  _143
REMARK   60  A    between atoms: _145  and  _147
REMARK   61  A    between atoms: _147  and  _148
REMARK   62  A    between atoms: _147  and  _150
REMARK   63  A    between atoms: _150  and  _151
REMARK   64  A    between atoms: _151  and  _152
REMARK   65  A    between atoms: _152  and  _153
REMARK   66  A    between atoms: _162  and  _164
REMARK   67  A    between atoms: _164  and  _165
REMARK   68  A    between atoms: _164  and  _167
REMARK   69  A    between atoms: _167  and  _168
REMARK   70  A    between atoms: _173  and  _175
REMARK   71  A    between atoms: _175  and  _176
REMARK   72  A    between atoms: _178  and  _180
REMARK   73  A    between atoms: _180  and  _181
REMARK   74  A    between atoms: _180  and  _183
REMARK   75  A    between atoms: _183  and  _184
REMARK   76  A    between atoms: _184  and  _185
REMARK   77  A    between atoms: _185  and  _186
REMARK   78  A    between atoms: _195  and  _197
REMARK   79  A    between atoms: _197  and  _198
REMARK   80  A    between atoms: _200  and  _202
REMARK   81  A    between atoms: _202  and  _203
REMARK   82  A    between atoms: _202  and  _205
REMARK   83  A    between atoms: _205  and  _206
REMARK   84  A    between atoms: _216  and  _218
REMARK   85  A    between atoms: _218  and  _219
REMARK   86  A    between atoms: _222  and  _224
REMARK   87  A    between atoms: _224  and  _225
REMARK   88  A    between atoms: _228  and  _230
REMARK   89  A    between atoms: _230  and  _231
REMARK   90  A    between atoms: _230  and  _233
REMARK   91  A    between atoms: _233  and  _234
REMARK   92  A    between atoms: _237  and  _239
REMARK   93  A    between atoms: _239  and  _240
REMARK   94  A    between atoms: _239  and  _242
REMARK   95  A    between atoms: _242  and  _243
REMARK   96  A    between atoms: _243  and  _244
REMARK   97  A    between atoms: _249  and  _251
REMARK   98  A    between atoms: _251  and  _252
REMARK   99  A    between atoms: _251  and  _254
REMARK  100  A    between atoms: _254  and  _255
REMARK  101  A    between atoms: _258  and  _260
REMARK  102  A    between atoms: _260  and  _261
REMARK  103  A    between atoms: _260  and  _263
REMARK  104  A    between atoms: _263  and  _264
REMARK  105  A    between atoms: _267  and  _269
REMARK  106  A    between atoms: _269  and  _270
REMARK  107  A    between atoms: _269  and  _272
REMARK  108  A    between atoms: _272  and  _273
REMARK  109  A    between atoms: _276  and  _278
REMARK  110  A    between atoms: _278  and  _279
REMARK  111  A    between atoms: _278  and  _281
REMARK  112  A    between atoms: _281  and  _282
REMARK  113  A    between atoms: _284  and  _286
REMARK  114  A    between atoms: _286  and  _287
REMARK  115  A    between atoms: _286  and  _289
REMARK  116  A    between atoms: _292  and  _294
REMARK  117  A    between atoms: _294  and  _295
REMARK  118  A    between atoms: _294  and  _297
REMARK  119  A    between atoms: _297  and  _298
REMARK  120  A    between atoms: _298  and  _299
REMARK  121  A    between atoms: _299  and  _300
REMARK  122  A    between atoms: _300  and  _301
REMARK  123  A    between atoms: _305  and  _307
REMARK  124  A    between atoms: _307  and  _308
REMARK  125  A    between atoms: _307  and  _310
REMARK  126  A    between atoms: _310  and  _311
REMARK  127  A    between atoms: _322  and  _323
REMARK  128  A    between atoms: _328  and  _330
REMARK  129  A    between atoms: _330  and  _331
REMARK  130  A    between atoms: _330  and  _333
REMARK  131  A    between atoms: _333  and  _334
REMARK  132  A    between atoms: _339  and  _341
REMARK  133  A    between atoms: _341  and  _342
REMARK  134  A    between atoms: _341  and  _344
REMARK  135  A    between atoms: _344  and  _345
REMARK  136  A    between atoms: _348  and  _350
REMARK  137  A    between atoms: _350  and  _351
REMARK  138  A    between atoms: _350  and  _353
REMARK  139  A    between atoms: _356  and  _358
REMARK  140  A    between atoms: _358  and  _359
REMARK  141  A    between atoms: _361  and  _363
REMARK  142  A    between atoms: _363  and  _364
REMARK  143  A    between atoms: _363  and  _366
REMARK  144  A    between atoms: _366  and  _367
REMARK  145  A    between atoms: _367  and  _368
REMARK  146  A    between atoms: _368  and  _369
REMARK  147  A    between atoms: _369  and  _370
REMARK  148  A    between atoms: _374  and  _376
REMARK  149  A    between atoms: _376  and  _377
REMARK  150  A    between atoms: _376  and  _379
REMARK  151  A    between atoms: _379  and  _380
REMARK  152  A    between atoms: _383  and  _385
REMARK  153  A    between atoms: _385  and  _386
REMARK  154  A    between atoms: _389  and  _391
REMARK  155  A    between atoms: _391  and  _392
REMARK  156  A    between atoms: _394  and  _396
REMARK  157  A    between atoms: _396  and  _397
REMARK  158  A    between atoms: _396  and  _399
REMARK  159  A    between atoms: _399  and  _400
REMARK  160  A    between atoms: _403  and  _405
REMARK  161  A    between atoms: _405  and  _406
REMARK  162  A    between atoms: _405  and  _408
REMARK  163  A    between atoms: _408  and  _409
REMARK  164  A    between atoms: _412  and  _414
REMARK  165  A    between atoms: _414  and  _415
REMARK  166  A    between atoms: _418  and  _420
REMARK  167  A    between atoms: _420  and  _421
REMARK  168  A    between atoms: _420  and  _423
REMARK  169  A    between atoms: _423  and  _424
REMARK  170  A    between atoms: _424  and  _425
REMARK  171  A    between atoms: _428  and  _430
REMARK  172  A    between atoms: _430  and  _431
REMARK  173  A    between atoms: _430  and  _433
REMARK  174  A    between atoms: _436  and  _438
REMARK  175  A    between atoms: _438  and  _439
REMARK  176  A    between atoms: _438  and  _441
REMARK  177  A    between atoms: _441  and  _442
REMARK  178  A    between atoms: _445  and  _447
REMARK  179  A    between atoms: _447  and  _448
REMARK  180  A    between atoms: _450  and  _452
REMARK  181  A    between atoms: _452  and  _453
REMARK  182  A    between atoms: _452  and  _455
REMARK  183  A    between atoms: _458  and  _460
REMARK  184  A    between atoms: _460  and  _461
REMARK  185  A    between atoms: _463  and  _465
REMARK  186  A    between atoms: _465  and  _466
REMARK  187  A    between atoms: _465  and  _468
REMARK  188  A    between atoms: _468  and  _469
REMARK  189  A    between atoms: _472  and  _474
REMARK  190  A    between atoms: _474  and  _475
REMARK  191  A    between atoms: _474  and  _477
REMARK  192  A    between atoms: _477  and  _478
REMARK  193  A    between atoms: _483  and  _485
REMARK  194  A    between atoms: _485  and  _486
REMARK  195  A    between atoms: _485  and  _488
REMARK  196  A    between atoms: _491  and  _493
REMARK  197  A    between atoms: _493  and  _494
REMARK  198  A    between atoms: _493  and  _496
REMARK  199  A    between atoms: _496  and  _497
REMARK  200  A    between atoms: _497  and  _498
REMARK  201  A    between atoms: _503  and  _505
REMARK  202  A    between atoms: _505  and  _506
REMARK  203  A    between atoms: _510  and  _511
REMARK  204  A    between atoms: _516  and  _518
REMARK  205  A    between atoms: _518  and  _519
REMARK  206  A    between atoms: _518  and  _521
REMARK  207  A    between atoms: _521  and  _522
REMARK  208  A    between atoms: _522  and  _523
REMARK  209  A    between atoms: _526  and  _528
REMARK  210  A    between atoms: _528  and  _529
REMARK  211  A    between atoms: _528  and  _531
REMARK  212  A    between atoms: _534  and  _536
REMARK  213  A    between atoms: _536  and  _537
REMARK  214  A    between atoms: _536  and  _539
REMARK  215  A    between atoms: _539  and  _540
REMARK  216  A    between atoms: _544  and  _545
REMARK  217  A    between atoms: _550  and  _552
REMARK  218  A    between atoms: _552  and  _553
REMARK  219  A    between atoms: _552  and  _555
REMARK  220  A    between atoms: _555  and  _556
REMARK  221  A    between atoms: _559  and  _561
REMARK  222  A    between atoms: _561  and  _562
REMARK  223  A    between atoms: _565  and  _567
REMARK  224  A    between atoms: _567  and  _568
REMARK  225  A    between atoms: _567  and  _570
REMARK  226  A    between atoms: _570  and  _571
REMARK  227  A    between atoms: _574  and  _576
REMARK  228  A    between atoms: _576  and  _577
REMARK  229  A    between atoms: _576  and  _579
REMARK  230  A    between atoms: _579  and  _580
REMARK  231  A    between atoms: _582  and  _584
REMARK  232  A    between atoms: _584  and  _585
REMARK  233  A    between atoms: _587  and  _589
REMARK  234  A    between atoms: _589  and  _590
REMARK  235  A    between atoms: _589  and  _592
REMARK  236  A    between atoms: _592  and  _593
REMARK  237  A    between atoms: _596  and  _598
REMARK  238  A    between atoms: _598  and  _599
REMARK  239  A    between atoms: _598  and  _601
REMARK                            x       y       z     vdW  Elec       q    Type
REMARK                         _______ _______ _______ _____ _____    ______ ____
ROOT
ATOM      1  O   HOH     1       0.699   0.309   8.662  0.00  0.00    +0.000 OA
ENDROOT
TORSDOF 0
REMARK  Name = ../refined-set-2016/3rux/3rux_pocket.pdb
REMARK  239 active torsions:
REMARK  status: ('A' for Active; 'I' for Inactive)
REMARK    1  A    between atoms: _1  and  _3
REMARK    2  A    between atoms: _3  and  _4
REMARK    3  A    between atoms: _3  and  _6
REMARK    4  A    between atoms: _6  and  _7
REMARK    5  A    between atoms: _10  and  _12
REMARK    6  A    between atoms: _12  and  _13
REMARK    7  A    between atoms: _15  and  _17
REMARK    8  A    between atoms: _17  and  _18
REMARK    9  A    between atoms: _17  and  _20
REMARK   10  A    between atoms: _20  and  _21
REMARK   11  A    between atoms: _23  and  _25
REMARK   12  A    between atoms: _25  and  _26
REMARK   13  A    between atoms: _25  and  _28
REMARK   14  A    between atoms: _28  and  _29
REMARK   15  A    between atoms: _32  and  _34
REMARK   16  A    between atoms: _34  and  _35
REMARK   17  A    between atoms: _34  and  _37
REMARK   18  A    between atoms: _37  and  _38
REMARK   19  A    between atoms: _43  and  _45
REMARK   20  A    between atoms: _45  and  _46
REMARK   21  A    between atoms: _49  and  _51
REMARK   22  A    between atoms: _51  and  _52
REMARK   23  A    between atoms: _51  and  _54
REMARK   24  A    between atoms: _54  and  _55
REMARK   25  A    between atoms: _58  and  _60
REMARK   26  A    between atoms: _60  and  _61
REMARK   27  A    between atoms: _60  and  _63
REMARK   28  A    between atoms: _63  and  _64
REMARK   29  A    between atoms: _67  and  _69
REMARK   30  A    between atoms: _69  and  _70
REMARK   31  A    between atoms: _69  and  _72
REMARK   32  A    between atoms: _72  and  _73
REMARK   33  A    between atoms: _76  and  _78
REMARK   34  A    between atoms: _78  and  _79
REMARK   35  A    between atoms: _78  and  _81
REMARK   36  A    between atoms: _81  and  _82
REMARK   37  A    between atoms: _85  and  _87
REMARK   38  A    between atoms: _87  and  _88
REMARK   39  A    between atoms: _91  and  _93
REMARK   40  A    between atoms: _93  and  _94
REMARK   41  A    between atoms: _93  and  _96
REMARK   42  A    between atoms: _96  and  _97
REMARK   43  A    between atoms: _97  and  _98
REMARK   44  A    between atoms: _103  and  _105
REMARK   45  A    between atoms: _105  and  _106
REMARK   46  A    between atoms: _105  and  _108
REMARK   47  A    between atoms: _108  and  _109
REMARK   48  A    between atoms: _112  and  _114
REMARK   49  A    between atoms: _114  and  _115
REMARK   50  A    between atoms: _118  and  _120
REMARK   51  A    between atoms: _120  and  _121
REMARK   52  A    between atoms: _123  and  _125
REMARK   53  A    between atoms: _125  and  _126
REMARK   54  A    between atoms: _125  and  _128
REMARK   55  A    between atoms: _128  and  _129
REMARK   56  A    between atoms: _129  and  _130
REMARK   57  A    between atoms: _130  and  _131
REMARK   58  A    between atoms: _140  and  _142
REMARK   59  A    between atoms: _142  and  _143
REMARK   60  A    between atoms: _145  and  _147
REMARK   61  A    between atoms: _147  and  _148
REMARK   62  A    between atoms: _147  and  _150
REMARK   63  A    between atoms: _150  and  _151
REMARK   64  A    between atoms: _151  and  _152
REMARK   65  A    between atoms: _152  and  _153
REMARK   66  A    between atoms: _162  and  _164
REMARK   67  A    between atoms: _164  and  _165
REMARK   68  A    between atoms: _164  and  _167
REMARK   69  A    between atoms: _167  and  _168
REMARK   70  A    between atoms: _173  and  _175
REMARK   71  A    between atoms: _175  and  _176
REMARK   72  A    between atoms: _178  and  _180
REMARK   73  A    between atoms: _180  and  _181
REMARK   74  A    between atoms: _180  and  _183
REMARK   75  A    between atoms: _183  and  _184
REMARK   76  A    between atoms: _184  and  _185
REMARK   77  A    between atoms: _185  and  _186
REMARK   78  A    between atoms: _195  and  _197
REMARK   79  A    between atoms: _197  and  _198
REMARK   80  A    between atoms: _200  and  _202
REMARK   81  A    between atoms: _202  and  _203
REMARK   82  A    between atoms: _202  and  _205
REMARK   83  A    between atoms: _205  and  _206
REMARK   84  A    between atoms: _216  and  _218
REMARK   85  A    between atoms: _218  and  _219
REMARK   86  A    between atoms: _222  and  _224
REMARK   87  A    between atoms: _224  and  _225
REMARK   88  A    between atoms: _228  and  _230
REMARK   89  A    between atoms: _230  and  _231
REMARK   90  A    between atoms: _230  and  _233
REMARK   91  A    between atoms: _233  and  _234
REMARK   92  A    between atoms: _237  and  _239
REMARK   93  A    between atoms: _239  and  _240
REMARK   94  A    between atoms: _239  and  _242
REMARK   95  A    between atoms: _242  and  _243
REMARK   96  A    between atoms: _243  and  _244
REMARK   97  A    between atoms: _249  and  _251
REMARK   98  A    between atoms: _251  and  _252
REMARK   99  A    between atoms: _251  and  _254
REMARK  100  A    between atoms: _254  and  _255
REMARK  101  A    between atoms: _258  and  _260
REMARK  102  A    between atoms: _260  and  _261
REMARK  103  A    between atoms: _260  and  _263
REMARK  104  A    between atoms: _263  and  _264
REMARK  105  A    between atoms: _267  and  _269
REMARK  106  A    between atoms: _269  and  _270
REMARK  107  A    between atoms: _269  and  _272
REMARK  108  A    between atoms: _272  and  _273
REMARK  109  A    between atoms: _276  and  _278
REMARK  110  A    between atoms: _278  and  _279
REMARK  111  A    between atoms: _278  and  _281
REMARK  112  A    between atoms: _281  and  _282
REMARK  113  A    between atoms: _284  and  _286
REMARK  114  A    between atoms: _286  and  _287
REMARK  115  A    between atoms: _286  and  _289
REMARK  116  A    between atoms: _292  and  _294
REMARK  117  A    between atoms: _294  and  _295
REMARK  118  A    between atoms: _294  and  _297
REMARK  119  A    between atoms: _297  and  _298
REMARK  120  A    between atoms: _298  and  _299
REMARK  121  A    between atoms: _299  and  _300
REMARK  122  A    between atoms: _300  and  _301
REMARK  123  A    between atoms: _305  and  _307
REMARK  124  A    between atoms: _307  and  _308
REMARK  125  A    between atoms: _307  and  _310
REMARK  126  A    between atoms: _310  and  _311
REMARK  127  A    between atoms: _322  and  _323
REMARK  128  A    between atoms: _328  and  _330
REMARK  129  A    between atoms: _330  and  _331
REMARK  130  A    between atoms: _330  and  _333
REMARK  131  A    between atoms: _333  and  _334
REMARK  132  A    between atoms: _339  and  _341
REMARK  133  A    between atoms: _341  and  _342
REMARK  134  A    between atoms: _341  and  _344
REMARK  135  A    between atoms: _344  and  _345
REMARK  136  A    between atoms: _348  and  _350
REMARK  137  A    between atoms: _350  and  _351
REMARK  138  A    between atoms: _350  and  _353
REMARK  139  A    between atoms: _356  and  _358
REMARK  140  A    between atoms: _358  and  _359
REMARK  141  A    between atoms: _361  and  _363
REMARK  142  A    between atoms: _363  and  _364
REMARK  143  A    between atoms: _363  and  _366
REMARK  144  A    between atoms: _366  and  _367
REMARK  145  A    between atoms: _367  and  _368
REMARK  146  A    between atoms: _368  and  _369
REMARK  147  A    between atoms: _369  and  _370
REMARK  148  A    between atoms: _374  and  _376
REMARK  149  A    between atoms: _376  and  _377
REMARK  150  A    between atoms: _376  and  _379
REMARK  151  A    between atoms: _379  and  _380
REMARK  152  A    between atoms: _383  and  _385
REMARK  153  A    between atoms: _385  and  _386
REMARK  154  A    between atoms: _389  and  _391
REMARK  155  A    between atoms: _391  and  _392
REMARK  156  A    between atoms: _394  and  _396
REMARK  157  A    between atoms: _396  and  _397
REMARK  158  A    between atoms: _396  and  _399
REMARK  159  A    between atoms: _399  and  _400
REMARK  160  A    between atoms: _403  and  _405
REMARK  161  A    between atoms: _405  and  _406
REMARK  162  A    between atoms: _405  and  _408
REMARK  163  A    between atoms: _408  and  _409
REMARK  164  A    between atoms: _412  and  _414
REMARK  165  A    between atoms: _414  and  _415
REMARK  166  A    between atoms: _418  and  _420
REMARK  167  A    between atoms: _420  and  _421
REMARK  168  A    between atoms: _420  and  _423
REMARK  169  A    between atoms: _423  and  _424
REMARK  170  A    between atoms: _424  and  _425
REMARK  171  A    between atoms: _428  and  _430
REMARK  172  A    between atoms: _430  and  _431
REMARK  173  A    between atoms: _430  and  _433
REMARK  174  A    between atoms: _436  and  _438
REMARK  175  A    between atoms: _438  and  _439
REMARK  176  A    between atoms: _438  and  _441
REMARK  177  A    between atoms: _441  and  _442
REMARK  178  A    between atoms: _445  and  _447
REMARK  179  A    between atoms: _447  and  _448
REMARK  180  A    between atoms: _450  and  _452
REMARK  181  A    between atoms: _452  and  _453
REMARK  182  A    between atoms: _452  and  _455
REMARK  183  A    between atoms: _458  and  _460
REMARK  184  A    between atoms: _460  and  _461
REMARK  185  A    between atoms: _463  and  _465
REMARK  186  A    between atoms: _465  and  _466
REMARK  187  A    between atoms: _465  and  _468
REMARK  188  A    between atoms: _468  and  _469
REMARK  189  A    between atoms: _472  and  _474
REMARK  190  A    between atoms: _474  and  _475
REMARK  191  A    between atoms: _474  and  _477
REMARK  192  A    between atoms: _477  and  _478
REMARK  193  A    between atoms: _483  and  _485
REMARK  194  A    between atoms: _485  and  _486
REMARK  195  A    between atoms: _485  and  _488
REMARK  196  A    between atoms: _491  and  _493
REMARK  197  A    between atoms: _493  and  _494
REMARK  198  A    between atoms: _493  and  _496
REMARK  199  A    between atoms: _496  and  _497
REMARK  200  A    between atoms: _497  and  _498
REMARK  201  A    between atoms: _503  and  _505
REMARK  202  A    between atoms: _505  and  _506
REMARK  203  A    between atoms: _510  and  _511
REMARK  204  A    between atoms: _516  and  _518
REMARK  205  A    between atoms: _518  and  _519
REMARK  206  A    between atoms: _518  and  _521
REMARK  207  A    between atoms: _521  and  _522
REMARK  208  A    between atoms: _522  and  _523
REMARK  209  A    between atoms: _526  and  _528
REMARK  210  A    between atoms: _528  and  _529
REMARK  211  A    between atoms: _528  and  _531
REMARK  212  A    between atoms: _534  and  _536
REMARK  213  A    between atoms: _536  and  _537
REMARK  214  A    between atoms: _536  and  _539
REMARK  215  A    between atoms: _539  and  _540
REMARK  216  A    between atoms: _544  and  _545
REMARK  217  A    between atoms: _550  and  _552
REMARK  218  A    between atoms: _552  and  _553
REMARK  219  A    between atoms: _552  and  _555
REMARK  220  A    between atoms: _555  and  _556
REMARK  221  A    between atoms: _559  and  _561
REMARK  222  A    between atoms: _561  and  _562
REMARK  223  A    between atoms: _565  and  _567
REMARK  224  A    between atoms: _567  and  _568
REMARK  225  A    between atoms: _567  and  _570
REMARK  226  A    between atoms: _570  and  _571
REMARK  227  A    between atoms: _574  and  _576
REMARK  228  A    between atoms: _576  and  _577
REMARK  229  A    between atoms: _576  and  _579
REMARK  230  A    between atoms: _579  and  _580
REMARK  231  A    between atoms: _582  and  _584
REMARK  232  A    between atoms: _584  and  _585
REMARK  233  A    between atoms: _587  and  _589
REMARK  234  A    between atoms: _589  and  _590
REMARK  235  A    between atoms: _589  and  _592
REMARK  236  A    between atoms: _592  and  _593
REMARK  237  A    between atoms: _596  and  _598
REMARK  238  A    between atoms: _598  and  _599
REMARK  239  A    between atoms: _598  and  _601
REMARK                            x       y       z     vdW  Elec       q    Type
REMARK                         _______ _______ _______ _____ _____    ______ ____
ROOT
ATOM      1  O   HOH     1      -4.093  -9.666   0.057  0.00  0.00    +0.000 OA
ENDROOT
TORSDOF 0
REMARK  Name = ../refined-set-2016/3rux/3rux_pocket.pdb
REMARK  239 active torsions:
REMARK  status: ('A' for Active; 'I' for Inactive)
REMARK    1  A    between atoms: _1  and  _3
REMARK    2  A    between atoms: _3  and  _4
REMARK    3  A    between atoms: _3  and  _6
REMARK    4  A    between atoms: _6  and  _7
REMARK    5  A    between atoms: _10  and  _12
REMARK    6  A    between atoms: _12  and  _13
REMARK    7  A    between atoms: _15  and  _17
REMARK    8  A    between atoms: _17  and  _18
REMARK    9  A    between atoms: _17  and  _20
REMARK   10  A    between atoms: _20  and  _21
REMARK   11  A    between atoms: _23  and  _25
REMARK   12  A    between atoms: _25  and  _26
REMARK   13  A    between atoms: _25  and  _28
REMARK   14  A    between atoms: _28  and  _29
REMARK   15  A    between atoms: _32  and  _34
REMARK   16  A    between atoms: _34  and  _35
REMARK   17  A    between atoms: _34  and  _37
REMARK   18  A    between atoms: _37  and  _38
REMARK   19  A    between atoms: _43  and  _45
REMARK   20  A    between atoms: _45  and  _46
REMARK   21  A    between atoms: _49  and  _51
REMARK   22  A    between atoms: _51  and  _52
REMARK   23  A    between atoms: _51  and  _54
REMARK   24  A    between atoms: _54  and  _55
REMARK   25  A    between atoms: _58  and  _60
REMARK   26  A    between atoms: _60  and  _61
REMARK   27  A    between atoms: _60  and  _63
REMARK   28  A    between atoms: _63  and  _64
REMARK   29  A    between atoms: _67  and  _69
REMARK   30  A    between atoms: _69  and  _70
REMARK   31  A    between atoms: _69  and  _72
REMARK   32  A    between atoms: _72  and  _73
REMARK   33  A    between atoms: _76  and  _78
REMARK   34  A    between atoms: _78  and  _79
REMARK   35  A    between atoms: _78  and  _81
REMARK   36  A    between atoms: _81  and  _82
REMARK   37  A    between atoms: _85  and  _87
REMARK   38  A    between atoms: _87  and  _88
REMARK   39  A    between atoms: _91  and  _93
REMARK   40  A    between atoms: _93  and  _94
REMARK   41  A    between atoms: _93  and  _96
REMARK   42  A    between atoms: _96  and  _97
REMARK   43  A    between atoms: _97  and  _98
REMARK   44  A    between atoms: _103  and  _105
REMARK   45  A    between atoms: _105  and  _106
REMARK   46  A    between atoms: _105  and  _108
REMARK   47  A    between atoms: _108  and  _109
REMARK   48  A    between atoms: _112  and  _114
REMARK   49  A    between atoms: _114  and  _115
REMARK   50  A    between atoms: _118  and  _120
REMARK   51  A    between atoms: _120  and  _121
REMARK   52  A    between atoms: _123  and  _125
REMARK   53  A    between atoms: _125  and  _126
REMARK   54  A    between atoms: _125  and  _128
REMARK   55  A    between atoms: _128  and  _129
REMARK   56  A    between atoms: _129  and  _130
REMARK   57  A    between atoms: _130  and  _131
REMARK   58  A    between atoms: _140  and  _142
REMARK   59  A    between atoms: _142  and  _143
REMARK   60  A    between atoms: _145  and  _147
REMARK   61  A    between atoms: _147  and  _148
REMARK   62  A    between atoms: _147  and  _150
REMARK   63  A    between atoms: _150  and  _151
REMARK   64  A    between atoms: _151  and  _152
REMARK   65  A    between atoms: _152  and  _153
REMARK   66  A    between atoms: _162  and  _164
REMARK   67  A    between atoms: _164  and  _165
REMARK   68  A    between atoms: _164  and  _167
REMARK   69  A    between atoms: _167  and  _168
REMARK   70  A    between atoms: _173  and  _175
REMARK   71  A    between atoms: _175  and  _176
REMARK   72  A    between atoms: _178  and  _180
REMARK   73  A    between atoms: _180  and  _181
REMARK   74  A    between atoms: _180  and  _183
REMARK   75  A    between atoms: _183  and  _184
REMARK   76  A    between atoms: _184  and  _185
REMARK   77  A    between atoms: _185  and  _186
REMARK   78  A    between atoms: _195  and  _197
REMARK   79  A    between atoms: _197  and  _198
REMARK   80  A    between atoms: _200  and  _202
REMARK   81  A    between atoms: _202  and  _203
REMARK   82  A    between atoms: _202  and  _205
REMARK   83  A    between atoms: _205  and  _206
REMARK   84  A    between atoms: _216  and  _218
REMARK   85  A    between atoms: _218  and  _219
REMARK   86  A    between atoms: _222  and  _224
REMARK   87  A    between atoms: _224  and  _225
REMARK   88  A    between atoms: _228  and  _230
REMARK   89  A    between atoms: _230  and  _231
REMARK   90  A    between atoms: _230  and  _233
REMARK   91  A    between atoms: _233  and  _234
REMARK   92  A    between atoms: _237  and  _239
REMARK   93  A    between atoms: _239  and  _240
REMARK   94  A    between atoms: _239  and  _242
REMARK   95  A    between atoms: _242  and  _243
REMARK   96  A    between atoms: _243  and  _244
REMARK   97  A    between atoms: _249  and  _251
REMARK   98  A    between atoms: _251  and  _252
REMARK   99  A    between atoms: _251  and  _254
REMARK  100  A    between atoms: _254  and  _255
REMARK  101  A    between atoms: _258  and  _260
REMARK  102  A    between atoms: _260  and  _261
REMARK  103  A    between atoms: _260  and  _263
REMARK  104  A    between atoms: _263  and  _264
REMARK  105  A    between atoms: _267  and  _269
REMARK  106  A    between atoms: _269  and  _270
REMARK  107  A    between atoms: _269  and  _272
REMARK  108  A    between atoms: _272  and  _273
REMARK  109  A    between atoms: _276  and  _278
REMARK  110  A    between atoms: _278  and  _279
REMARK  111  A    between atoms: _278  and  _281
REMARK  112  A    between atoms: _281  and  _282
REMARK  113  A    between atoms: _284  and  _286
REMARK  114  A    between atoms: _286  and  _287
REMARK  115  A    between atoms: _286  and  _289
REMARK  116  A    between atoms: _292  and  _294
REMARK  117  A    between atoms: _294  and  _295
REMARK  118  A    between atoms: _294  and  _297
REMARK  119  A    between atoms: _297  and  _298
REMARK  120  A    between atoms: _298  and  _299
REMARK  121  A    between atoms: _299  and  _300
REMARK  122  A    between atoms: _300  and  _301
REMARK  123  A    between atoms: _305  and  _307
REMARK  124  A    between atoms: _307  and  _308
REMARK  125  A    between atoms: _307  and  _310
REMARK  126  A    between atoms: _310  and  _311
REMARK  127  A    between atoms: _322  and  _323
REMARK  128  A    between atoms: _328  and  _330
REMARK  129  A    between atoms: _330  and  _331
REMARK  130  A    between atoms: _330  and  _333
REMARK  131  A    between atoms: _333  and  _334
REMARK  132  A    between atoms: _339  and  _341
REMARK  133  A    between atoms: _341  and  _342
REMARK  134  A    between atoms: _341  and  _344
REMARK  135  A    between atoms: _344  and  _345
REMARK  136  A    between atoms: _348  and  _350
REMARK  137  A    between atoms: _350  and  _351
REMARK  138  A    between atoms: _350  and  _353
REMARK  139  A    between atoms: _356  and  _358
REMARK  140  A    between atoms: _358  and  _359
REMARK  141  A    between atoms: _361  and  _363
REMARK  142  A    between atoms: _363  and  _364
REMARK  143  A    between atoms: _363  and  _366
REMARK  144  A    between atoms: _366  and  _367
REMARK  145  A    between atoms: _367  and  _368
REMARK  146  A    between atoms: _368  and  _369
REMARK  147  A    between atoms: _369  and  _370
REMARK  148  A    between atoms: _374  and  _376
REMARK  149  A    between atoms: _376  and  _377
REMARK  150  A    between atoms: _376  and  _379
REMARK  151  A    between atoms: _379  and  _380
REMARK  152  A    between atoms: _383  and  _385
REMARK  153  A    between atoms: _385  and  _386
REMARK  154  A    between atoms: _389  and  _391
REMARK  155  A    between atoms: _391  and  _392
REMARK  156  A    between atoms: _394  and  _396
REMARK  157  A    between atoms: _396  and  _397
REMARK  158  A    between atoms: _396  and  _399
REMARK  159  A    between atoms: _399  and  _400
REMARK  160  A    between atoms: _403  and  _405
REMARK  161  A    between atoms: _405  and  _406
REMARK  162  A    between atoms: _405  and  _408
REMARK  163  A    between atoms: _408  and  _409
REMARK  164  A    between atoms: _412  and  _414
REMARK  165  A    between atoms: _414  and  _415
REMARK  166  A    between atoms: _418  and  _420
REMARK  167  A    between atoms: _420  and  _421
REMARK  168  A    between atoms: _420  and  _423
REMARK  169  A    between atoms: _423  and  _424
REMARK  170  A    between atoms: _424  and  _425
REMARK  171  A    between atoms: _428  and  _430
REMARK  172  A    between atoms: _430  and  _431
REMARK  173  A    between atoms: _430  and  _433
REMARK  174  A    between atoms: _436  and  _438
REMARK  175  A    between atoms: _438  and  _439
REMARK  176  A    between atoms: _438  and  _441
REMARK  177  A    between atoms: _441  and  _442
REMARK  178  A    between atoms: _445  and  _447
REMARK  179  A    between atoms: _447  and  _448
REMARK  180  A    between atoms: _450  and  _452
REMARK  181  A    between atoms: _452  and  _453
REMARK  182  A    between atoms: _452  and  _455
REMARK  183  A    between atoms: _458  and  _460
REMARK  184  A    between atoms: _460  and  _461
REMARK  185  A    between atoms: _463  and  _465
REMARK  186  A    between atoms: _465  and  _466
REMARK  187  A    between atoms: _465  and  _468
REMARK  188  A    between atoms: _468  and  _469
REMARK  189  A    between atoms: _472  and  _474
REMARK  190  A    between atoms: _474  and  _475
REMARK  191  A    between atoms: _474  and  _477
REMARK  192  A    between atoms: _477  and  _478
REMARK  193  A    between atoms: _483  and  _485
REMARK  194  A    between atoms: _485  and  _486
REMARK  195  A    between atoms: _485  and  _488
REMARK  196  A    between atoms: _491  and  _493
REMARK  197  A    between atoms: _493  and  _494
REMARK  198  A    between atoms: _493  and  _496
REMARK  199  A    between atoms: _496  and  _497
REMARK  200  A    between atoms: _497  and  _498
REMARK  201  A    between atoms: _503  and  _505
REMARK  202  A    between atoms: _505  and  _506
REMARK  203  A    between atoms: _510  and  _511
REMARK  204  A    between atoms: _516  and  _518
REMARK  205  A    between atoms: _518  and  _519
REMARK  206  A    between atoms: _518  and  _521
REMARK  207  A    between atoms: _521  and  _522
REMARK  208  A    between atoms: _522  and  _523
REMARK  209  A    between atoms: _526  and  _528
REMARK  210  A    between atoms: _528  and  _529
REMARK  211  A    between atoms: _528  and  _531
REMARK  212  A    between atoms: _534  and  _536
REMARK  213  A    between atoms: _536  and  _537
REMARK  214  A    between atoms: _536  and  _539
REMARK  215  A    between atoms: _539  and  _540
REMARK  216  A    between atoms: _544  and  _545
REMARK  217  A    between atoms: _550  and  _552
REMARK  218  A    between atoms: _552  and  _553
REMARK  219  A    between atoms: _552  and  _555
REMARK  220  A    between atoms: _555  and  _556
REMARK  221  A    between atoms: _559  and  _561
REMARK  222  A    between atoms: _561  and  _562
REMARK  223  A    between atoms: _565  and  _567
REMARK  224  A    between atoms: _567  and  _568
REMARK  225  A    between atoms: _567  and  _570
REMARK  226  A    between atoms: _570  and  _571
REMARK  227  A    between atoms: _574  and  _576
REMARK  228  A    between atoms: _576  and  _577
REMARK  229  A    between atoms: _576  and  _579
REMARK  230  A    between atoms: _579  and  _580
REMARK  231  A    between atoms: _582  and  _584
REMARK  232  A    between atoms: _584  and  _585
REMARK  233  A    between atoms: _587  and  _589
REMARK  234  A    between atoms: _589  and  _590
REMARK  235  A    between atoms: _589  and  _592
REMARK  236  A    between atoms: _592  and  _593
REMARK  237  A    between atoms: _596  and  _598
REMARK  238  A    between atoms: _598  and  _599
REMARK  239  A    between atoms: _598  and  _601
REMARK                            x       y       z     vdW  Elec       q    Type
REMARK                         _______ _______ _______ _____ _____    ______ ____
ROOT
ATOM      1  O   HOH     1      -5.545 -12.472   3.623  0.00  0.00    +0.000 OA
ENDROOT
TORSDOF 0
REMARK  Name = ../refined-set-2016/3rux/3rux_pocket.pdb
REMARK  239 active torsions:
REMARK  status: ('A' for Active; 'I' for Inactive)
REMARK    1  A    between atoms: _1  and  _3
REMARK    2  A    between atoms: _3  and  _4
REMARK    3  A    between atoms: _3  and  _6
REMARK    4  A    between atoms: _6  and  _7
REMARK    5  A    between atoms: _10  and  _12
REMARK    6  A    between atoms: _12  and  _13
REMARK    7  A    between atoms: _15  and  _17
REMARK    8  A    between atoms: _17  and  _18
REMARK    9  A    between atoms: _17  and  _20
REMARK   10  A    between atoms: _20  and  _21
REMARK   11  A    between atoms: _23  and  _25
REMARK   12  A    between atoms: _25  and  _26
REMARK   13  A    between atoms: _25  and  _28
REMARK   14  A    between atoms: _28  and  _29
REMARK   15  A    between atoms: _32  and  _34
REMARK   16  A    between atoms: _34  and  _35
REMARK   17  A    between atoms: _34  and  _37
REMARK   18  A    between atoms: _37  and  _38
REMARK   19  A    between atoms: _43  and  _45
REMARK   20  A    between atoms: _45  and  _46
REMARK   21  A    between atoms: _49  and  _51
REMARK   22  A    between atoms: _51  and  _52
REMARK   23  A    between atoms: _51  and  _54
REMARK   24  A    between atoms: _54  and  _55
REMARK   25  A    between atoms: _58  and  _60
REMARK   26  A    between atoms: _60  and  _61
REMARK   27  A    between atoms: _60  and  _63
REMARK   28  A    between atoms: _63  and  _64
REMARK   29  A    between atoms: _67  and  _69
REMARK   30  A    between atoms: _69  and  _70
REMARK   31  A    between atoms: _69  and  _72
REMARK   32  A    between atoms: _72  and  _73
REMARK   33  A    between atoms: _76  and  _78
REMARK   34  A    between atoms: _78  and  _79
REMARK   35  A    between atoms: _78  and  _81
REMARK   36  A    between atoms: _81  and  _82
REMARK   37  A    between atoms: _85  and  _87
REMARK   38  A    between atoms: _87  and  _88
REMARK   39  A    between atoms: _91  and  _93
REMARK   40  A    between atoms: _93  and  _94
REMARK   41  A    between atoms: _93  and  _96
REMARK   42  A    between atoms: _96  and  _97
REMARK   43  A    between atoms: _97  and  _98
REMARK   44  A    between atoms: _103  and  _105
REMARK   45  A    between atoms: _105  and  _106
REMARK   46  A    between atoms: _105  and  _108
REMARK   47  A    between atoms: _108  and  _109
REMARK   48  A    between atoms: _112  and  _114
REMARK   49  A    between atoms: _114  and  _115
REMARK   50  A    between atoms: _118  and  _120
REMARK   51  A    between atoms: _120  and  _121
REMARK   52  A    between atoms: _123  and  _125
REMARK   53  A    between atoms: _125  and  _126
REMARK   54  A    between atoms: _125  and  _128
REMARK   55  A    between atoms: _128  and  _129
REMARK   56  A    between atoms: _129  and  _130
REMARK   57  A    between atoms: _130  and  _131
REMARK   58  A    between atoms: _140  and  _142
REMARK   59  A    between atoms: _142  and  _143
REMARK   60  A    between atoms: _145  and  _147
REMARK   61  A    between atoms: _147  and  _148
REMARK   62  A    between atoms: _147  and  _150
REMARK   63  A    between atoms: _150  and  _151
REMARK   64  A    between atoms: _151  and  _152
REMARK   65  A    between atoms: _152  and  _153
REMARK   66  A    between atoms: _162  and  _164
REMARK   67  A    between atoms: _164  and  _165
REMARK   68  A    between atoms: _164  and  _167
REMARK   69  A    between atoms: _167  and  _168
REMARK   70  A    between atoms: _173  and  _175
REMARK   71  A    between atoms: _175  and  _176
REMARK   72  A    between atoms: _178  and  _180
REMARK   73  A    between atoms: _180  and  _181
REMARK   74  A    between atoms: _180  and  _183
REMARK   75  A    between atoms: _183  and  _184
REMARK   76  A    between atoms: _184  and  _185
REMARK   77  A    between atoms: _185  and  _186
REMARK   78  A    between atoms: _195  and  _197
REMARK   79  A    between atoms: _197  and  _198
REMARK   80  A    between atoms: _200  and  _202
REMARK   81  A    between atoms: _202  and  _203
REMARK   82  A    between atoms: _202  and  _205
REMARK   83  A    between atoms: _205  and  _206
REMARK   84  A    between atoms: _216  and  _218
REMARK   85  A    between atoms: _218  and  _219
REMARK   86  A    between atoms: _222  and  _224
REMARK   87  A    between atoms: _224  and  _225
REMARK   88  A    between atoms: _228  and  _230
REMARK   89  A    between atoms: _230  and  _231
REMARK   90  A    between atoms: _230  and  _233
REMARK   91  A    between atoms: _233  and  _234
REMARK   92  A    between atoms: _237  and  _239
REMARK   93  A    between atoms: _239  and  _240
REMARK   94  A    between atoms: _239  and  _242
REMARK   95  A    between atoms: _242  and  _243
REMARK   96  A    between atoms: _243  and  _244
REMARK   97  A    between atoms: _249  and  _251
REMARK   98  A    between atoms: _251  and  _252
REMARK   99  A    between atoms: _251  and  _254
REMARK  100  A    between atoms: _254  and  _255
REMARK  101  A    between atoms: _258  and  _260
REMARK  102  A    between atoms: _260  and  _261
REMARK  103  A    between atoms: _260  and  _263
REMARK  104  A    between atoms: _263  and  _264
REMARK  105  A    between atoms: _267  and  _269
REMARK  106  A    between atoms: _269  and  _270
REMARK  107  A    between atoms: _269  and  _272
REMARK  108  A    between atoms: _272  and  _273
REMARK  109  A    between atoms: _276  and  _278
REMARK  110  A    between atoms: _278  and  _279
REMARK  111  A    between atoms: _278  and  _281
REMARK  112  A    between atoms: _281  and  _282
REMARK  113  A    between atoms: _284  and  _286
REMARK  114  A    between atoms: _286  and  _287
REMARK  115  A    between atoms: _286  and  _289
REMARK  116  A    between atoms: _292  and  _294
REMARK  117  A    between atoms: _294  and  _295
REMARK  118  A    between atoms: _294  and  _297
REMARK  119  A    between atoms: _297  and  _298
REMARK  120  A    between atoms: _298  and  _299
REMARK  121  A    between atoms: _299  and  _300
REMARK  122  A    between atoms: _300  and  _301
REMARK  123  A    between atoms: _305  and  _307
REMARK  124  A    between atoms: _307  and  _308
REMARK  125  A    between atoms: _307  and  _310
REMARK  126  A    between atoms: _310  and  _311
REMARK  127  A    between atoms: _322  and  _323
REMARK  128  A    between atoms: _328  and  _330
REMARK  129  A    between atoms: _330  and  _331
REMARK  130  A    between atoms: _330  and  _333
REMARK  131  A    between atoms: _333  and  _334
REMARK  132  A    between atoms: _339  and  _341
REMARK  133  A    between atoms: _341  and  _342
REMARK  134  A    between atoms: _341  and  _344
REMARK  135  A    between atoms: _344  and  _345
REMARK  136  A    between atoms: _348  and  _350
REMARK  137  A    between atoms: _350  and  _351
REMARK  138  A    between atoms: _350  and  _353
REMARK  139  A    between atoms: _356  and  _358
REMARK  140  A    between atoms: _358  and  _359
REMARK  141  A    between atoms: _361  and  _363
REMARK  142  A    between atoms: _363  and  _364
REMARK  143  A    between atoms: _363  and  _366
REMARK  144  A    between atoms: _366  and  _367
REMARK  145  A    between atoms: _367  and  _368
REMARK  146  A    between atoms: _368  and  _369
REMARK  147  A    between atoms: _369  and  _370
REMARK  148  A    between atoms: _374  and  _376
REMARK  149  A    between atoms: _376  and  _377
REMARK  150  A    between atoms: _376  and  _379
REMARK  151  A    between atoms: _379  and  _380
REMARK  152  A    between atoms: _383  and  _385
REMARK  153  A    between atoms: _385  and  _386
REMARK  154  A    between atoms: _389  and  _391
REMARK  155  A    between atoms: _391  and  _392
REMARK  156  A    between atoms: _394  and  _396
REMARK  157  A    between atoms: _396  and  _397
REMARK  158  A    between atoms: _396  and  _399
REMARK  159  A    between atoms: _399  and  _400
REMARK  160  A    between atoms: _403  and  _405
REMARK  161  A    between atoms: _405  and  _406
REMARK  162  A    between atoms: _405  and  _408
REMARK  163  A    between atoms: _408  and  _409
REMARK  164  A    between atoms: _412  and  _414
REMARK  165  A    between atoms: _414  and  _415
REMARK  166  A    between atoms: _418  and  _420
REMARK  167  A    between atoms: _420  and  _421
REMARK  168  A    between atoms: _420  and  _423
REMARK  169  A    between atoms: _423  and  _424
REMARK  170  A    between atoms: _424  and  _425
REMARK  171  A    between atoms: _428  and  _430
REMARK  172  A    between atoms: _430  and  _431
REMARK  173  A    between atoms: _430  and  _433
REMARK  174  A    between atoms: _436  and  _438
REMARK  175  A    between atoms: _438  and  _439
REMARK  176  A    between atoms: _438  and  _441
REMARK  177  A    between atoms: _441  and  _442
REMARK  178  A    between atoms: _445  and  _447
REMARK  179  A    between atoms: _447  and  _448
REMARK  180  A    between atoms: _450  and  _452
REMARK  181  A    between atoms: _452  and  _453
REMARK  182  A    between atoms: _452  and  _455
REMARK  183  A    between atoms: _458  and  _460
REMARK  184  A    between atoms: _460  and  _461
REMARK  185  A    between atoms: _463  and  _465
REMARK  186  A    between atoms: _465  and  _466
REMARK  187  A    between atoms: _465  and  _468
REMARK  188  A    between atoms: _468  and  _469
REMARK  189  A    between atoms: _472  and  _474
REMARK  190  A    between atoms: _474  and  _475
REMARK  191  A    between atoms: _474  and  _477
REMARK  192  A    between atoms: _477  and  _478
REMARK  193  A    between atoms: _483  and  _485
REMARK  194  A    between atoms: _485  and  _486
REMARK  195  A    between atoms: _485  and  _488
REMARK  196  A    between atoms: _491  and  _493
REMARK  197  A    between atoms: _493  and  _494
REMARK  198  A    between atoms: _493  and  _496
REMARK  199  A    between atoms: _496  and  _497
REMARK  200  A    between atoms: _497  and  _498
REMARK  201  A    between atoms: _503  and  _505
REMARK  202  A    between atoms: _505  and  _506
REMARK  203  A    between atoms: _510  and  _511
REMARK  204  A    between atoms: _516  and  _518
REMARK  205  A    between atoms: _518  and  _519
REMARK  206  A    between atoms: _518  and  _521
REMARK  207  A    between atoms: _521  and  _522
REMARK  208  A    between atoms: _522  and  _523
REMARK  209  A    between atoms: _526  and  _528
REMARK  210  A    between atoms: _528  and  _529
REMARK  211  A    between atoms: _528  and  _531
REMARK  212  A    between atoms: _534  and  _536
REMARK  213  A    between atoms: _536  and  _537
REMARK  214  A    between atoms: _536  and  _539
REMARK  215  A    between atoms: _539  and  _540
REMARK  216  A    between atoms: _544  and  _545
REMARK  217  A    between atoms: _550  and  _552
REMARK  218  A    between atoms: _552  and  _553
REMARK  219  A    between atoms: _552  and  _555
REMARK  220  A    between atoms: _555  and  _556
REMARK  221  A    between atoms: _559  and  _561
REMARK  222  A    between atoms: _561  and  _562
REMARK  223  A    between atoms: _565  and  _567
REMARK  224  A    between atoms: _567  and  _568
REMARK  225  A    between atoms: _567  and  _570
REMARK  226  A    between atoms: _570  and  _571
REMARK  227  A    between atoms: _574  and  _576
REMARK  228  A    between atoms: _576  and  _577
REMARK  229  A    between atoms: _576  and  _579
REMARK  230  A    between atoms: _579  and  _580
REMARK  231  A    between atoms: _582  and  _584
REMARK  232  A    between atoms: _584  and  _585
REMARK  233  A    between atoms: _587  and  _589
REMARK  234  A    between atoms: _589  and  _590
REMARK  235  A    between atoms: _589  and  _592
REMARK  236  A    between atoms: _592  and  _593
REMARK  237  A    between atoms: _596  and  _598
REMARK  238  A    between atoms: _598  and  _599
REMARK  239  A    between atoms: _598  and  _601
REMARK                            x       y       z     vdW  Elec       q    Type
REMARK                         _______ _______ _______ _____ _____    ______ ____
ROOT
ATOM      1  O   HOH     1      -5.327   2.589   5.426  0.00  0.00    +0.000 OA
ENDROOT
TORSDOF 0
REMARK  Name = ../refined-set-2016/3rux/3rux_pocket.pdb
REMARK  239 active torsions:
REMARK  status: ('A' for Active; 'I' for Inactive)
REMARK    1  A    between atoms: _1  and  _3
REMARK    2  A    between atoms: _3  and  _4
REMARK    3  A    between atoms: _3  and  _6
REMARK    4  A    between atoms: _6  and  _7
REMARK    5  A    between atoms: _10  and  _12
REMARK    6  A    between atoms: _12  and  _13
REMARK    7  A    between atoms: _15  and  _17
REMARK    8  A    between atoms: _17  and  _18
REMARK    9  A    between atoms: _17  and  _20
REMARK   10  A    between atoms: _20  and  _21
REMARK   11  A    between atoms: _23  and  _25
REMARK   12  A    between atoms: _25  and  _26
REMARK   13  A    between atoms: _25  and  _28
REMARK   14  A    between atoms: _28  and  _29
REMARK   15  A    between atoms: _32  and  _34
REMARK   16  A    between atoms: _34  and  _35
REMARK   17  A    between atoms: _34  and  _37
REMARK   18  A    between atoms: _37  and  _38
REMARK   19  A    between atoms: _43  and  _45
REMARK   20  A    between atoms: _45  and  _46
REMARK   21  A    between atoms: _49  and  _51
REMARK   22  A    between atoms: _51  and  _52
REMARK   23  A    between atoms: _51  and  _54
REMARK   24  A    between atoms: _54  and  _55
REMARK   25  A    between atoms: _58  and  _60
REMARK   26  A    between atoms: _60  and  _61
REMARK   27  A    between atoms: _60  and  _63
REMARK   28  A    between atoms: _63  and  _64
REMARK   29  A    between atoms: _67  and  _69
REMARK   30  A    between atoms: _69  and  _70
REMARK   31  A    between atoms: _69  and  _72
REMARK   32  A    between atoms: _72  and  _73
REMARK   33  A    between atoms: _76  and  _78
REMARK   34  A    between atoms: _78  and  _79
REMARK   35  A    between atoms: _78  and  _81
REMARK   36  A    between atoms: _81  and  _82
REMARK   37  A    between atoms: _85  and  _87
REMARK   38  A    between atoms: _87  and  _88
REMARK   39  A    between atoms: _91  and  _93
REMARK   40  A    between atoms: _93  and  _94
REMARK   41  A    between atoms: _93  and  _96
REMARK   42  A    between atoms: _96  and  _97
REMARK   43  A    between atoms: _97  and  _98
REMARK   44  A    between atoms: _103  and  _105
REMARK   45  A    between atoms: _105  and  _106
REMARK   46  A    between atoms: _105  and  _108
REMARK   47  A    between atoms: _108  and  _109
REMARK   48  A    between atoms: _112  and  _114
REMARK   49  A    between atoms: _114  and  _115
REMARK   50  A    between atoms: _118  and  _120
REMARK   51  A    between atoms: _120  and  _121
REMARK   52  A    between atoms: _123  and  _125
REMARK   53  A    between atoms: _125  and  _126
REMARK   54  A    between atoms: _125  and  _128
REMARK   55  A    between atoms: _128  and  _129
REMARK   56  A    between atoms: _129  and  _130
REMARK   57  A    between atoms: _130  and  _131
REMARK   58  A    between atoms: _140  and  _142
REMARK   59  A    between atoms: _142  and  _143
REMARK   60  A    between atoms: _145  and  _147
REMARK   61  A    between atoms: _147  and  _148
REMARK   62  A    between atoms: _147  and  _150
REMARK   63  A    between atoms: _150  and  _151
REMARK   64  A    between atoms: _151  and  _152
REMARK   65  A    between atoms: _152  and  _153
REMARK   66  A    between atoms: _162  and  _164
REMARK   67  A    between atoms: _164  and  _165
REMARK   68  A    between atoms: _164  and  _167
REMARK   69  A    between atoms: _167  and  _168
REMARK   70  A    between atoms: _173  and  _175
REMARK   71  A    between atoms: _175  and  _176
REMARK   72  A    between atoms: _178  and  _180
REMARK   73  A    between atoms: _180  and  _181
REMARK   74  A    between atoms: _180  and  _183
REMARK   75  A    between atoms: _183  and  _184
REMARK   76  A    between atoms: _184  and  _185
REMARK   77  A    between atoms: _185  and  _186
REMARK   78  A    between atoms: _195  and  _197
REMARK   79  A    between atoms: _197  and  _198
REMARK   80  A    between atoms: _200  and  _202
REMARK   81  A    between atoms: _202  and  _203
REMARK   82  A    between atoms: _202  and  _205
REMARK   83  A    between atoms: _205  and  _206
REMARK   84  A    between atoms: _216  and  _218
REMARK   85  A    between atoms: _218  and  _219
REMARK   86  A    between atoms: _222  and  _224
REMARK   87  A    between atoms: _224  and  _225
REMARK   88  A    between atoms: _228  and  _230
REMARK   89  A    between atoms: _230  and  _231
REMARK   90  A    between atoms: _230  and  _233
REMARK   91  A    between atoms: _233  and  _234
REMARK   92  A    between atoms: _237  and  _239
REMARK   93  A    between atoms: _239  and  _240
REMARK   94  A    between atoms: _239  and  _242
REMARK   95  A    between atoms: _242  and  _243
REMARK   96  A    between atoms: _243  and  _244
REMARK   97  A    between atoms: _249  and  _251
REMARK   98  A    between atoms: _251  and  _252
REMARK   99  A    between atoms: _251  and  _254
REMARK  100  A    between atoms: _254  and  _255
REMARK  101  A    between atoms: _258  and  _260
REMARK  102  A    between atoms: _260  and  _261
REMARK  103  A    between atoms: _260  and  _263
REMARK  104  A    between atoms: _263  and  _264
REMARK  105  A    between atoms: _267  and  _269
REMARK  106  A    between atoms: _269  and  _270
REMARK  107  A    between atoms: _269  and  _272
REMARK  108  A    between atoms: _272  and  _273
REMARK  109  A    between atoms: _276  and  _278
REMARK  110  A    between atoms: _278  and  _279
REMARK  111  A    between atoms: _278  and  _281
REMARK  112  A    between atoms: _281  and  _282
REMARK  113  A    between atoms: _284  and  _286
REMARK  114  A    between atoms: _286  and  _287
REMARK  115  A    between atoms: _286  and  _289
REMARK  116  A    between atoms: _292  and  _294
REMARK  117  A    between atoms: _294  and  _295
REMARK  118  A    between atoms: _294  and  _297
REMARK  119  A    between atoms: _297  and  _298
REMARK  120  A    between atoms: _298  and  _299
REMARK  121  A    between atoms: _299  and  _300
REMARK  122  A    between atoms: _300  and  _301
REMARK  123  A    between atoms: _305  and  _307
REMARK  124  A    between atoms: _307  and  _308
REMARK  125  A    between atoms: _307  and  _310
REMARK  126  A    between atoms: _310  and  _311
REMARK  127  A    between atoms: _322  and  _323
REMARK  128  A    between atoms: _328  and  _330
REMARK  129  A    between atoms: _330  and  _331
REMARK  130  A    between atoms: _330  and  _333
REMARK  131  A    between atoms: _333  and  _334
REMARK  132  A    between atoms: _339  and  _341
REMARK  133  A    between atoms: _341  and  _342
REMARK  134  A    between atoms: _341  and  _344
REMARK  135  A    between atoms: _344  and  _345
REMARK  136  A    between atoms: _348  and  _350
REMARK  137  A    between atoms: _350  and  _351
REMARK  138  A    between atoms: _350  and  _353
REMARK  139  A    between atoms: _356  and  _358
REMARK  140  A    between atoms: _358  and  _359
REMARK  141  A    between atoms: _361  and  _363
REMARK  142  A    between atoms: _363  and  _364
REMARK  143  A    between atoms: _363  and  _366
REMARK  144  A    between atoms: _366  and  _367
REMARK  145  A    between atoms: _367  and  _368
REMARK  146  A    between atoms: _368  and  _369
REMARK  147  A    between atoms: _369  and  _370
REMARK  148  A    between atoms: _374  and  _376
REMARK  149  A    between atoms: _376  and  _377
REMARK  150  A    between atoms: _376  and  _379
REMARK  151  A    between atoms: _379  and  _380
REMARK  152  A    between atoms: _383  and  _385
REMARK  153  A    between atoms: _385  and  _386
REMARK  154  A    between atoms: _389  and  _391
REMARK  155  A    between atoms: _391  and  _392
REMARK  156  A    between atoms: _394  and  _396
REMARK  157  A    between atoms: _396  and  _397
REMARK  158  A    between atoms: _396  and  _399
REMARK  159  A    between atoms: _399  and  _400
REMARK  160  A    between atoms: _403  and  _405
REMARK  161  A    between atoms: _405  and  _406
REMARK  162  A    between atoms: _405  and  _408
REMARK  163  A    between atoms: _408  and  _409
REMARK  164  A    between atoms: _412  and  _414
REMARK  165  A    between atoms: _414  and  _415
REMARK  166  A    between atoms: _418  and  _420
REMARK  167  A    between atoms: _420  and  _421
REMARK  168  A    between atoms: _420  and  _423
REMARK  169  A    between atoms: _423  and  _424
REMARK  170  A    between atoms: _424  and  _425
REMARK  171  A    between atoms: _428  and  _430
REMARK  172  A    between atoms: _430  and  _431
REMARK  173  A    between atoms: _430  and  _433
REMARK  174  A    between atoms: _436  and  _438
REMARK  175  A    between atoms: _438  and  _439
REMARK  176  A    between atoms: _438  and  _441
REMARK  177  A    between atoms: _441  and  _442
REMARK  178  A    between atoms: _445  and  _447
REMARK  179  A    between atoms: _447  and  _448
REMARK  180  A    between atoms: _450  and  _452
REMARK  181  A    between atoms: _452  and  _453
REMARK  182  A    between atoms: _452  and  _455
REMARK  183  A    between atoms: _458  and  _460
REMARK  184  A    between atoms: _460  and  _461
REMARK  185  A    between atoms: _463  and  _465
REMARK  186  A    between atoms: _465  and  _466
REMARK  187  A    between atoms: _465  and  _468
REMARK  188  A    between atoms: _468  and  _469
REMARK  189  A    between atoms: _472  and  _474
REMARK  190  A    between atoms: _474  and  _475
REMARK  191  A    between atoms: _474  and  _477
REMARK  192  A    between atoms: _477  and  _478
REMARK  193  A    between atoms: _483  and  _485
REMARK  194  A    between atoms: _485  and  _486
REMARK  195  A    between atoms: _485  and  _488
REMARK  196  A    between atoms: _491  and  _493
REMARK  197  A    between atoms: _493  and  _494
REMARK  198  A    between atoms: _493  and  _496
REMARK  199  A    between atoms: _496  and  _497
REMARK  200  A    between atoms: _497  and  _498
REMARK  201  A    between atoms: _503  and  _505
REMARK  202  A    between atoms: _505  and  _506
REMARK  203  A    between atoms: _510  and  _511
REMARK  204  A    between atoms: _516  and  _518
REMARK  205  A    between atoms: _518  and  _519
REMARK  206  A    between atoms: _518  and  _521
REMARK  207  A    between atoms: _521  and  _522
REMARK  208  A    between atoms: _522  and  _523
REMARK  209  A    between atoms: _526  and  _528
REMARK  210  A    between atoms: _528  and  _529
REMARK  211  A    between atoms: _528  and  _531
REMARK  212  A    between atoms: _534  and  _536
REMARK  213  A    between atoms: _536  and  _537
REMARK  214  A    between atoms: _536  and  _539
REMARK  215  A    between atoms: _539  and  _540
REMARK  216  A    between atoms: _544  and  _545
REMARK  217  A    between atoms: _550  and  _552
REMARK  218  A    between atoms: _552  and  _553
REMARK  219  A    between atoms: _552  and  _555
REMARK  220  A    between atoms: _555  and  _556
REMARK  221  A    between atoms: _559  and  _561
REMARK  222  A    between atoms: _561  and  _562
REMARK  223  A    between atoms: _565  and  _567
REMARK  224  A    between atoms: _567  and  _568
REMARK  225  A    between atoms: _567  and  _570
REMARK  226  A    between atoms: _570  and  _571
REMARK  227  A    between atoms: _574  and  _576
REMARK  228  A    between atoms: _576  and  _577
REMARK  229  A    between atoms: _576  and  _579
REMARK  230  A    between atoms: _579  and  _580
REMARK  231  A    between atoms: _582  and  _584
REMARK  232  A    between atoms: _584  and  _585
REMARK  233  A    between atoms: _587  and  _589
REMARK  234  A    between atoms: _589  and  _590
REMARK  235  A    between atoms: _589  and  _592
REMARK  236  A    between atoms: _592  and  _593
REMARK  237  A    between atoms: _596  and  _598
REMARK  238  A    between atoms: _598  and  _599
REMARK  239  A    between atoms: _598  and  _601
REMARK                            x       y       z     vdW  Elec       q    Type
REMARK                         _______ _______ _______ _____ _____    ______ ____
ROOT
ATOM      1  O   HOH     1       5.258  -8.432   8.122  0.00  0.00    +0.000 OA
ENDROOT
TORSDOF 0
REMARK  Name = ../refined-set-2016/3rux/3rux_pocket.pdb
REMARK  239 active torsions:
REMARK  status: ('A' for Active; 'I' for Inactive)
REMARK    1  A    between atoms: _1  and  _3
REMARK    2  A    between atoms: _3  and  _4
REMARK    3  A    between atoms: _3  and  _6
REMARK    4  A    between atoms: _6  and  _7
REMARK    5  A    between atoms: _10  and  _12
REMARK    6  A    between atoms: _12  and  _13
REMARK    7  A    between atoms: _15  and  _17
REMARK    8  A    between atoms: _17  and  _18
REMARK    9  A    between atoms: _17  and  _20
REMARK   10  A    between atoms: _20  and  _21
REMARK   11  A    between atoms: _23  and  _25
REMARK   12  A    between atoms: _25  and  _26
REMARK   13  A    between atoms: _25  and  _28
REMARK   14  A    between atoms: _28  and  _29
REMARK   15  A    between atoms: _32  and  _34
REMARK   16  A    between atoms: _34  and  _35
REMARK   17  A    between atoms: _34  and  _37
REMARK   18  A    between atoms: _37  and  _38
REMARK   19  A    between atoms: _43  and  _45
REMARK   20  A    between atoms: _45  and  _46
REMARK   21  A    between atoms: _49  and  _51
REMARK   22  A    between atoms: _51  and  _52
REMARK   23  A    between atoms: _51  and  _54
REMARK   24  A    between atoms: _54  and  _55
REMARK   25  A    between atoms: _58  and  _60
REMARK   26  A    between atoms: _60  and  _61
REMARK   27  A    between atoms: _60  and  _63
REMARK   28  A    between atoms: _63  and  _64
REMARK   29  A    between atoms: _67  and  _69
REMARK   30  A    between atoms: _69  and  _70
REMARK   31  A    between atoms: _69  and  _72
REMARK   32  A    between atoms: _72  and  _73
REMARK   33  A    between atoms: _76  and  _78
REMARK   34  A    between atoms: _78  and  _79
REMARK   35  A    between atoms: _78  and  _81
REMARK   36  A    between atoms: _81  and  _82
REMARK   37  A    between atoms: _85  and  _87
REMARK   38  A    between atoms: _87  and  _88
REMARK   39  A    between atoms: _91  and  _93
REMARK   40  A    between atoms: _93  and  _94
REMARK   41  A    between atoms: _93  and  _96
REMARK   42  A    between atoms: _96  and  _97
REMARK   43  A    between atoms: _97  and  _98
REMARK   44  A    between atoms: _103  and  _105
REMARK   45  A    between atoms: _105  and  _106
REMARK   46  A    between atoms: _105  and  _108
REMARK   47  A    between atoms: _108  and  _109
REMARK   48  A    between atoms: _112  and  _114
REMARK   49  A    between atoms: _114  and  _115
REMARK   50  A    between atoms: _118  and  _120
REMARK   51  A    between atoms: _120  and  _121
REMARK   52  A    between atoms: _123  and  _125
REMARK   53  A    between atoms: _125  and  _126
REMARK   54  A    between atoms: _125  and  _128
REMARK   55  A    between atoms: _128  and  _129
REMARK   56  A    between atoms: _129  and  _130
REMARK   57  A    between atoms: _130  and  _131
REMARK   58  A    between atoms: _140  and  _142
REMARK   59  A    between atoms: _142  and  _143
REMARK   60  A    between atoms: _145  and  _147
REMARK   61  A    between atoms: _147  and  _148
REMARK   62  A    between atoms: _147  and  _150
REMARK   63  A    between atoms: _150  and  _151
REMARK   64  A    between atoms: _151  and  _152
REMARK   65  A    between atoms: _152  and  _153
REMARK   66  A    between atoms: _162  and  _164
REMARK   67  A    between atoms: _164  and  _165
REMARK   68  A    between atoms: _164  and  _167
REMARK   69  A    between atoms: _167  and  _168
REMARK   70  A    between atoms: _173  and  _175
REMARK   71  A    between atoms: _175  and  _176
REMARK   72  A    between atoms: _178  and  _180
REMARK   73  A    between atoms: _180  and  _181
REMARK   74  A    between atoms: _180  and  _183
REMARK   75  A    between atoms: _183  and  _184
REMARK   76  A    between atoms: _184  and  _185
REMARK   77  A    between atoms: _185  and  _186
REMARK   78  A    between atoms: _195  and  _197
REMARK   79  A    between atoms: _197  and  _198
REMARK   80  A    between atoms: _200  and  _202
REMARK   81  A    between atoms: _202  and  _203
REMARK   82  A    between atoms: _202  and  _205
REMARK   83  A    between atoms: _205  and  _206
REMARK   84  A    between atoms: _216  and  _218
REMARK   85  A    between atoms: _218  and  _219
REMARK   86  A    between atoms: _222  and  _224
REMARK   87  A    between atoms: _224  and  _225
REMARK   88  A    between atoms: _228  and  _230
REMARK   89  A    between atoms: _230  and  _231
REMARK   90  A    between atoms: _230  and  _233
REMARK   91  A    between atoms: _233  and  _234
REMARK   92  A    between atoms: _237  and  _239
REMARK   93  A    between atoms: _239  and  _240
REMARK   94  A    between atoms: _239  and  _242
REMARK   95  A    between atoms: _242  and  _243
REMARK   96  A    between atoms: _243  and  _244
REMARK   97  A    between atoms: _249  and  _251
REMARK   98  A    between atoms: _251  and  _252
REMARK   99  A    between atoms: _251  and  _254
REMARK  100  A    between atoms: _254  and  _255
REMARK  101  A    between atoms: _258  and  _260
REMARK  102  A    between atoms: _260  and  _261
REMARK  103  A    between atoms: _260  and  _263
REMARK  104  A    between atoms: _263  and  _264
REMARK  105  A    between atoms: _267  and  _269
REMARK  106  A    between atoms: _269  and  _270
REMARK  107  A    between atoms: _269  and  _272
REMARK  108  A    between atoms: _272  and  _273
REMARK  109  A    between atoms: _276  and  _278
REMARK  110  A    between atoms: _278  and  _279
REMARK  111  A    between atoms: _278  and  _281
REMARK  112  A    between atoms: _281  and  _282
REMARK  113  A    between atoms: _284  and  _286
REMARK  114  A    between atoms: _286  and  _287
REMARK  115  A    between atoms: _286  and  _289
REMARK  116  A    between atoms: _292  and  _294
REMARK  117  A    between atoms: _294  and  _295
REMARK  118  A    between atoms: _294  and  _297
REMARK  119  A    between atoms: _297  and  _298
REMARK  120  A    between atoms: _298  and  _299
REMARK  121  A    between atoms: _299  and  _300
REMARK  122  A    between atoms: _300  and  _301
REMARK  123  A    between atoms: _305  and  _307
REMARK  124  A    between atoms: _307  and  _308
REMARK  125  A    between atoms: _307  and  _310
REMARK  126  A    between atoms: _310  and  _311
REMARK  127  A    between atoms: _322  and  _323
REMARK  128  A    between atoms: _328  and  _330
REMARK  129  A    between atoms: _330  and  _331
REMARK  130  A    between atoms: _330  and  _333
REMARK  131  A    between atoms: _333  and  _334
REMARK  132  A    between atoms: _339  and  _341
REMARK  133  A    between atoms: _341  and  _342
REMARK  134  A    between atoms: _341  and  _344
REMARK  135  A    between atoms: _344  and  _345
REMARK  136  A    between atoms: _348  and  _350
REMARK  137  A    between atoms: _350  and  _351
REMARK  138  A    between atoms: _350  and  _353
REMARK  139  A    between atoms: _356  and  _358
REMARK  140  A    between atoms: _358  and  _359
REMARK  141  A    between atoms: _361  and  _363
REMARK  142  A    between atoms: _363  and  _364
REMARK  143  A    between atoms: _363  and  _366
REMARK  144  A    between atoms: _366  and  _367
REMARK  145  A    between atoms: _367  and  _368
REMARK  146  A    between atoms: _368  and  _369
REMARK  147  A    between atoms: _369  and  _370
REMARK  148  A    between atoms: _374  and  _376
REMARK  149  A    between atoms: _376  and  _377
REMARK  150  A    between atoms: _376  and  _379
REMARK  151  A    between atoms: _379  and  _380
REMARK  152  A    between atoms: _383  and  _385
REMARK  153  A    between atoms: _385  and  _386
REMARK  154  A    between atoms: _389  and  _391
REMARK  155  A    between atoms: _391  and  _392
REMARK  156  A    between atoms: _394  and  _396
REMARK  157  A    between atoms: _396  and  _397
REMARK  158  A    between atoms: _396  and  _399
REMARK  159  A    between atoms: _399  and  _400
REMARK  160  A    between atoms: _403  and  _405
REMARK  161  A    between atoms: _405  and  _406
REMARK  162  A    between atoms: _405  and  _408
REMARK  163  A    between atoms: _408  and  _409
REMARK  164  A    between atoms: _412  and  _414
REMARK  165  A    between atoms: _414  and  _415
REMARK  166  A    between atoms: _418  and  _420
REMARK  167  A    between atoms: _420  and  _421
REMARK  168  A    between atoms: _420  and  _423
REMARK  169  A    between atoms: _423  and  _424
REMARK  170  A    between atoms: _424  and  _425
REMARK  171  A    between atoms: _428  and  _430
REMARK  172  A    between atoms: _430  and  _431
REMARK  173  A    between atoms: _430  and  _433
REMARK  174  A    between atoms: _436  and  _438
REMARK  175  A    between atoms: _438  and  _439
REMARK  176  A    between atoms: _438  and  _441
REMARK  177  A    between atoms: _441  and  _442
REMARK  178  A    between atoms: _445  and  _447
REMARK  179  A    between atoms: _447  and  _448
REMARK  180  A    between atoms: _450  and  _452
REMARK  181  A    between atoms: _452  and  _453
REMARK  182  A    between atoms: _452  and  _455
REMARK  183  A    between atoms: _458  and  _460
REMARK  184  A    between atoms: _460  and  _461
REMARK  185  A    between atoms: _463  and  _465
REMARK  186  A    between atoms: _465  and  _466
REMARK  187  A    between atoms: _465  and  _468
REMARK  188  A    between atoms: _468  and  _469
REMARK  189  A    between atoms: _472  and  _474
REMARK  190  A    between atoms: _474  and  _475
REMARK  191  A    between atoms: _474  and  _477
REMARK  192  A    between atoms: _477  and  _478
REMARK  193  A    between atoms: _483  and  _485
REMARK  194  A    between atoms: _485  and  _486
REMARK  195  A    between atoms: _485  and  _488
REMARK  196  A    between atoms: _491  and  _493
REMARK  197  A    between atoms: _493  and  _494
REMARK  198  A    between atoms: _493  and  _496
REMARK  199  A    between atoms: _496  and  _497
REMARK  200  A    between atoms: _497  and  _498
REMARK  201  A    between atoms: _503  and  _505
REMARK  202  A    between atoms: _505  and  _506
REMARK  203  A    between atoms: _510  and  _511
REMARK  204  A    between atoms: _516  and  _518
REMARK  205  A    between atoms: _518  and  _519
REMARK  206  A    between atoms: _518  and  _521
REMARK  207  A    between atoms: _521  and  _522
REMARK  208  A    between atoms: _522  and  _523
REMARK  209  A    between atoms: _526  and  _528
REMARK  210  A    between atoms: _528  and  _529
REMARK  211  A    between atoms: _528  and  _531
REMARK  212  A    between atoms: _534  and  _536
REMARK  213  A    between atoms: _536  and  _537
REMARK  214  A    between atoms: _536  and  _539
REMARK  215  A    between atoms: _539  and  _540
REMARK  216  A    between atoms: _544  and  _545
REMARK  217  A    between atoms: _550  and  _552
REMARK  218  A    between atoms: _552  and  _553
REMARK  219  A    between atoms: _552  and  _555
REMARK  220  A    between atoms: _555  and  _556
REMARK  221  A    between atoms: _559  and  _561
REMARK  222  A    between atoms: _561  and  _562
REMARK  223  A    between atoms: _565  and  _567
REMARK  224  A    between atoms: _567  and  _568
REMARK  225  A    between atoms: _567  and  _570
REMARK  226  A    between atoms: _570  and  _571
REMARK  227  A    between atoms: _574  and  _576
REMARK  228  A    between atoms: _576  and  _577
REMARK  229  A    between atoms: _576  and  _579
REMARK  230  A    between atoms: _579  and  _580
REMARK  231  A    between atoms: _582  and  _584
REMARK  232  A    between atoms: _584  and  _585
REMARK  233  A    between atoms: _587  and  _589
REMARK  234  A    between atoms: _589  and  _590
REMARK  235  A    between atoms: _589  and  _592
REMARK  236  A    between atoms: _592  and  _593
REMARK  237  A    between atoms: _596  and  _598
REMARK  238  A    between atoms: _598  and  _599
REMARK  239  A    between atoms: _598  and  _601
REMARK                            x       y       z     vdW  Elec       q    Type
REMARK                         _______ _______ _______ _____ _____    ______ ____
ROOT
ATOM      1  O   HOH     1      -6.212   4.261   6.867  0.00  0.00    +0.000 OA
ENDROOT
TORSDOF 0
REMARK  Name = ../refined-set-2016/3rux/3rux_pocket.pdb
REMARK  239 active torsions:
REMARK  status: ('A' for Active; 'I' for Inactive)
REMARK    1  A    between atoms: _1  and  _3
REMARK    2  A    between atoms: _3  and  _4
REMARK    3  A    between atoms: _3  and  _6
REMARK    4  A    between atoms: _6  and  _7
REMARK    5  A    between atoms: _10  and  _12
REMARK    6  A    between atoms: _12  and  _13
REMARK    7  A    between atoms: _15  and  _17
REMARK    8  A    between atoms: _17  and  _18
REMARK    9  A    between atoms: _17  and  _20
REMARK   10  A    between atoms: _20  and  _21
REMARK   11  A    between atoms: _23  and  _25
REMARK   12  A    between atoms: _25  and  _26
REMARK   13  A    between atoms: _25  and  _28
REMARK   14  A    between atoms: _28  and  _29
REMARK   15  A    between atoms: _32  and  _34
REMARK   16  A    between atoms: _34  and  _35
REMARK   17  A    between atoms: _34  and  _37
REMARK   18  A    between atoms: _37  and  _38
REMARK   19  A    between atoms: _43  and  _45
REMARK   20  A    between atoms: _45  and  _46
REMARK   21  A    between atoms: _49  and  _51
REMARK   22  A    between atoms: _51  and  _52
REMARK   23  A    between atoms: _51  and  _54
REMARK   24  A    between atoms: _54  and  _55
REMARK   25  A    between atoms: _58  and  _60
REMARK   26  A    between atoms: _60  and  _61
REMARK   27  A    between atoms: _60  and  _63
REMARK   28  A    between atoms: _63  and  _64
REMARK   29  A    between atoms: _67  and  _69
REMARK   30  A    between atoms: _69  and  _70
REMARK   31  A    between atoms: _69  and  _72
REMARK   32  A    between atoms: _72  and  _73
REMARK   33  A    between atoms: _76  and  _78
REMARK   34  A    between atoms: _78  and  _79
REMARK   35  A    between atoms: _78  and  _81
REMARK   36  A    between atoms: _81  and  _82
REMARK   37  A    between atoms: _85  and  _87
REMARK   38  A    between atoms: _87  and  _88
REMARK   39  A    between atoms: _91  and  _93
REMARK   40  A    between atoms: _93  and  _94
REMARK   41  A    between atoms: _93  and  _96
REMARK   42  A    between atoms: _96  and  _97
REMARK   43  A    between atoms: _97  and  _98
REMARK   44  A    between atoms: _103  and  _105
REMARK   45  A    between atoms: _105  and  _106
REMARK   46  A    between atoms: _105  and  _108
REMARK   47  A    between atoms: _108  and  _109
REMARK   48  A    between atoms: _112  and  _114
REMARK   49  A    between atoms: _114  and  _115
REMARK   50  A    between atoms: _118  and  _120
REMARK   51  A    between atoms: _120  and  _121
REMARK   52  A    between atoms: _123  and  _125
REMARK   53  A    between atoms: _125  and  _126
REMARK   54  A    between atoms: _125  and  _128
REMARK   55  A    between atoms: _128  and  _129
REMARK   56  A    between atoms: _129  and  _130
REMARK   57  A    between atoms: _130  and  _131
REMARK   58  A    between atoms: _140  and  _142
REMARK   59  A    between atoms: _142  and  _143
REMARK   60  A    between atoms: _145  and  _147
REMARK   61  A    between atoms: _147  and  _148
REMARK   62  A    between atoms: _147  and  _150
REMARK   63  A    between atoms: _150  and  _151
REMARK   64  A    between atoms: _151  and  _152
REMARK   65  A    between atoms: _152  and  _153
REMARK   66  A    between atoms: _162  and  _164
REMARK   67  A    between atoms: _164  and  _165
REMARK   68  A    between atoms: _164  and  _167
REMARK   69  A    between atoms: _167  and  _168
REMARK   70  A    between atoms: _173  and  _175
REMARK   71  A    between atoms: _175  and  _176
REMARK   72  A    between atoms: _178  and  _180
REMARK   73  A    between atoms: _180  and  _181
REMARK   74  A    between atoms: _180  and  _183
REMARK   75  A    between atoms: _183  and  _184
REMARK   76  A    between atoms: _184  and  _185
REMARK   77  A    between atoms: _185  and  _186
REMARK   78  A    between atoms: _195  and  _197
REMARK   79  A    between atoms: _197  and  _198
REMARK   80  A    between atoms: _200  and  _202
REMARK   81  A    between atoms: _202  and  _203
REMARK   82  A    between atoms: _202  and  _205
REMARK   83  A    between atoms: _205  and  _206
REMARK   84  A    between atoms: _216  and  _218
REMARK   85  A    between atoms: _218  and  _219
REMARK   86  A    between atoms: _222  and  _224
REMARK   87  A    between atoms: _224  and  _225
REMARK   88  A    between atoms: _228  and  _230
REMARK   89  A    between atoms: _230  and  _231
REMARK   90  A    between atoms: _230  and  _233
REMARK   91  A    between atoms: _233  and  _234
REMARK   92  A    between atoms: _237  and  _239
REMARK   93  A    between atoms: _239  and  _240
REMARK   94  A    between atoms: _239  and  _242
REMARK   95  A    between atoms: _242  and  _243
REMARK   96  A    between atoms: _243  and  _244
REMARK   97  A    between atoms: _249  and  _251
REMARK   98  A    between atoms: _251  and  _252
REMARK   99  A    between atoms: _251  and  _254
REMARK  100  A    between atoms: _254  and  _255
REMARK  101  A    between atoms: _258  and  _260
REMARK  102  A    between atoms: _260  and  _261
REMARK  103  A    between atoms: _260  and  _263
REMARK  104  A    between atoms: _263  and  _264
REMARK  105  A    between atoms: _267  and  _269
REMARK  106  A    between atoms: _269  and  _270
REMARK  107  A    between atoms: _269  and  _272
REMARK  108  A    between atoms: _272  and  _273
REMARK  109  A    between atoms: _276  and  _278
REMARK  110  A    between atoms: _278  and  _279
REMARK  111  A    between atoms: _278  and  _281
REMARK  112  A    between atoms: _281  and  _282
REMARK  113  A    between atoms: _284  and  _286
REMARK  114  A    between atoms: _286  and  _287
REMARK  115  A    between atoms: _286  and  _289
REMARK  116  A    between atoms: _292  and  _294
REMARK  117  A    between atoms: _294  and  _295
REMARK  118  A    between atoms: _294  and  _297
REMARK  119  A    between atoms: _297  and  _298
REMARK  120  A    between atoms: _298  and  _299
REMARK  121  A    between atoms: _299  and  _300
REMARK  122  A    between atoms: _300  and  _301
REMARK  123  A    between atoms: _305  and  _307
REMARK  124  A    between atoms: _307  and  _308
REMARK  125  A    between atoms: _307  and  _310
REMARK  126  A    between atoms: _310  and  _311
REMARK  127  A    between atoms: _322  and  _323
REMARK  128  A    between atoms: _328  and  _330
REMARK  129  A    between atoms: _330  and  _331
REMARK  130  A    between atoms: _330  and  _333
REMARK  131  A    between atoms: _333  and  _334
REMARK  132  A    between atoms: _339  and  _341
REMARK  133  A    between atoms: _341  and  _342
REMARK  134  A    between atoms: _341  and  _344
REMARK  135  A    between atoms: _344  and  _345
REMARK  136  A    between atoms: _348  and  _350
REMARK  137  A    between atoms: _350  and  _351
REMARK  138  A    between atoms: _350  and  _353
REMARK  139  A    between atoms: _356  and  _358
REMARK  140  A    between atoms: _358  and  _359
REMARK  141  A    between atoms: _361  and  _363
REMARK  142  A    between atoms: _363  and  _364
REMARK  143  A    between atoms: _363  and  _366
REMARK  144  A    between atoms: _366  and  _367
REMARK  145  A    between atoms: _367  and  _368
REMARK  146  A    between atoms: _368  and  _369
REMARK  147  A    between atoms: _369  and  _370
REMARK  148  A    between atoms: _374  and  _376
REMARK  149  A    between atoms: _376  and  _377
REMARK  150  A    between atoms: _376  and  _379
REMARK  151  A    between atoms: _379  and  _380
REMARK  152  A    between atoms: _383  and  _385
REMARK  153  A    between atoms: _385  and  _386
REMARK  154  A    between atoms: _389  and  _391
REMARK  155  A    between atoms: _391  and  _392
REMARK  156  A    between atoms: _394  and  _396
REMARK  157  A    between atoms: _396  and  _397
REMARK  158  A    between atoms: _396  and  _399
REMARK  159  A    between atoms: _399  and  _400
REMARK  160  A    between atoms: _403  and  _405
REMARK  161  A    between atoms: _405  and  _406
REMARK  162  A    between atoms: _405  and  _408
REMARK  163  A    between atoms: _408  and  _409
REMARK  164  A    between atoms: _412  and  _414
REMARK  165  A    between atoms: _414  and  _415
REMARK  166  A    between atoms: _418  and  _420
REMARK  167  A    between atoms: _420  and  _421
REMARK  168  A    between atoms: _420  and  _423
REMARK  169  A    between atoms: _423  and  _424
REMARK  170  A    between atoms: _424  and  _425
REMARK  171  A    between atoms: _428  and  _430
REMARK  172  A    between atoms: _430  and  _431
REMARK  173  A    between atoms: _430  and  _433
REMARK  174  A    between atoms: _436  and  _438
REMARK  175  A    between atoms: _438  and  _439
REMARK  176  A    between atoms: _438  and  _441
REMARK  177  A    between atoms: _441  and  _442
REMARK  178  A    between atoms: _445  and  _447
REMARK  179  A    between atoms: _447  and  _448
REMARK  180  A    between atoms: _450  and  _452
REMARK  181  A    between atoms: _452  and  _453
REMARK  182  A    between atoms: _452  and  _455
REMARK  183  A    between atoms: _458  and  _460
REMARK  184  A    between atoms: _460  and  _461
REMARK  185  A    between atoms: _463  and  _465
REMARK  186  A    between atoms: _465  and  _466
REMARK  187  A    between atoms: _465  and  _468
REMARK  188  A    between atoms: _468  and  _469
REMARK  189  A    between atoms: _472  and  _474
REMARK  190  A    between atoms: _474  and  _475
REMARK  191  A    between atoms: _474  and  _477
REMARK  192  A    between atoms: _477  and  _478
REMARK  193  A    between atoms: _483  and  _485
REMARK  194  A    between atoms: _485  and  _486
REMARK  195  A    between atoms: _485  and  _488
REMARK  196  A    between atoms: _491  and  _493
REMARK  197  A    between atoms: _493  and  _494
REMARK  198  A    between atoms: _493  and  _496
REMARK  199  A    between atoms: _496  and  _497
REMARK  200  A    between atoms: _497  and  _498
REMARK  201  A    between atoms: _503  and  _505
REMARK  202  A    between atoms: _505  and  _506
REMARK  203  A    between atoms: _510  and  _511
REMARK  204  A    between atoms: _516  and  _518
REMARK  205  A    between atoms: _518  and  _519
REMARK  206  A    between atoms: _518  and  _521
REMARK  207  A    between atoms: _521  and  _522
REMARK  208  A    between atoms: _522  and  _523
REMARK  209  A    between atoms: _526  and  _528
REMARK  210  A    between atoms: _528  and  _529
REMARK  211  A    between atoms: _528  and  _531
REMARK  212  A    between atoms: _534  and  _536
REMARK  213  A    between atoms: _536  and  _537
REMARK  214  A    between atoms: _536  and  _539
REMARK  215  A    between atoms: _539  and  _540
REMARK  216  A    between atoms: _544  and  _545
REMARK  217  A    between atoms: _550  and  _552
REMARK  218  A    between atoms: _552  and  _553
REMARK  219  A    between atoms: _552  and  _555
REMARK  220  A    between atoms: _555  and  _556
REMARK  221  A    between atoms: _559  and  _561
REMARK  222  A    between atoms: _561  and  _562
REMARK  223  A    between atoms: _565  and  _567
REMARK  224  A    between atoms: _567  and  _568
REMARK  225  A    between atoms: _567  and  _570
REMARK  226  A    between atoms: _570  and  _571
REMARK  227  A    between atoms: _574  and  _576
REMARK  228  A    between atoms: _576  and  _577
REMARK  229  A    between atoms: _576  and  _579
REMARK  230  A    between atoms: _579  and  _580
REMARK  231  A    between atoms: _582  and  _584
REMARK  232  A    between atoms: _584  and  _585
REMARK  233  A    between atoms: _587  and  _589
REMARK  234  A    between atoms: _589  and  _590
REMARK  235  A    between atoms: _589  and  _592
REMARK  236  A    between atoms: _592  and  _593
REMARK  237  A    between atoms: _596  and  _598
REMARK  238  A    between atoms: _598  and  _599
REMARK  239  A    between atoms: _598  and  _601
REMARK                            x       y       z     vdW  Elec       q    Type
REMARK                         _______ _______ _______ _____ _____    ______ ____
ROOT
ATOM      1  O   HOH     1      -8.640  -1.679   1.235  0.00  0.00    +0.000 OA
ENDROOT
TORSDOF 0
REMARK  Name = ../refined-set-2016/3rux/3rux_pocket.pdb
REMARK  239 active torsions:
REMARK  status: ('A' for Active; 'I' for Inactive)
REMARK    1  A    between atoms: _1  and  _3
REMARK    2  A    between atoms: _3  and  _4
REMARK    3  A    between atoms: _3  and  _6
REMARK    4  A    between atoms: _6  and  _7
REMARK    5  A    between atoms: _10  and  _12
REMARK    6  A    between atoms: _12  and  _13
REMARK    7  A    between atoms: _15  and  _17
REMARK    8  A    between atoms: _17  and  _18
REMARK    9  A    between atoms: _17  and  _20
REMARK   10  A    between atoms: _20  and  _21
REMARK   11  A    between atoms: _23  and  _25
REMARK   12  A    between atoms: _25  and  _26
REMARK   13  A    between atoms: _25  and  _28
REMARK   14  A    between atoms: _28  and  _29
REMARK   15  A    between atoms: _32  and  _34
REMARK   16  A    between atoms: _34  and  _35
REMARK   17  A    between atoms: _34  and  _37
REMARK   18  A    between atoms: _37  and  _38
REMARK   19  A    between atoms: _43  and  _45
REMARK   20  A    between atoms: _45  and  _46
REMARK   21  A    between atoms: _49  and  _51
REMARK   22  A    between atoms: _51  and  _52
REMARK   23  A    between atoms: _51  and  _54
REMARK   24  A    between atoms: _54  and  _55
REMARK   25  A    between atoms: _58  and  _60
REMARK   26  A    between atoms: _60  and  _61
REMARK   27  A    between atoms: _60  and  _63
REMARK   28  A    between atoms: _63  and  _64
REMARK   29  A    between atoms: _67  and  _69
REMARK   30  A    between atoms: _69  and  _70
REMARK   31  A    between atoms: _69  and  _72
REMARK   32  A    between atoms: _72  and  _73
REMARK   33  A    between atoms: _76  and  _78
REMARK   34  A    between atoms: _78  and  _79
REMARK   35  A    between atoms: _78  and  _81
REMARK   36  A    between atoms: _81  and  _82
REMARK   37  A    between atoms: _85  and  _87
REMARK   38  A    between atoms: _87  and  _88
REMARK   39  A    between atoms: _91  and  _93
REMARK   40  A    between atoms: _93  and  _94
REMARK   41  A    between atoms: _93  and  _96
REMARK   42  A    between atoms: _96  and  _97
REMARK   43  A    between atoms: _97  and  _98
REMARK   44  A    between atoms: _103  and  _105
REMARK   45  A    between atoms: _105  and  _106
REMARK   46  A    between atoms: _105  and  _108
REMARK   47  A    between atoms: _108  and  _109
REMARK   48  A    between atoms: _112  and  _114
REMARK   49  A    between atoms: _114  and  _115
REMARK   50  A    between atoms: _118  and  _120
REMARK   51  A    between atoms: _120  and  _121
REMARK   52  A    between atoms: _123  and  _125
REMARK   53  A    between atoms: _125  and  _126
REMARK   54  A    between atoms: _125  and  _128
REMARK   55  A    between atoms: _128  and  _129
REMARK   56  A    between atoms: _129  and  _130
REMARK   57  A    between atoms: _130  and  _131
REMARK   58  A    between atoms: _140  and  _142
REMARK   59  A    between atoms: _142  and  _143
REMARK   60  A    between atoms: _145  and  _147
REMARK   61  A    between atoms: _147  and  _148
REMARK   62  A    between atoms: _147  and  _150
REMARK   63  A    between atoms: _150  and  _151
REMARK   64  A    between atoms: _151  and  _152
REMARK   65  A    between atoms: _152  and  _153
REMARK   66  A    between atoms: _162  and  _164
REMARK   67  A    between atoms: _164  and  _165
REMARK   68  A    between atoms: _164  and  _167
REMARK   69  A    between atoms: _167  and  _168
REMARK   70  A    between atoms: _173  and  _175
REMARK   71  A    between atoms: _175  and  _176
REMARK   72  A    between atoms: _178  and  _180
REMARK   73  A    between atoms: _180  and  _181
REMARK   74  A    between atoms: _180  and  _183
REMARK   75  A    between atoms: _183  and  _184
REMARK   76  A    between atoms: _184  and  _185
REMARK   77  A    between atoms: _185  and  _186
REMARK   78  A    between atoms: _195  and  _197
REMARK   79  A    between atoms: _197  and  _198
REMARK   80  A    between atoms: _200  and  _202
REMARK   81  A    between atoms: _202  and  _203
REMARK   82  A    between atoms: _202  and  _205
REMARK   83  A    between atoms: _205  and  _206
REMARK   84  A    between atoms: _216  and  _218
REMARK   85  A    between atoms: _218  and  _219
REMARK   86  A    between atoms: _222  and  _224
REMARK   87  A    between atoms: _224  and  _225
REMARK   88  A    between atoms: _228  and  _230
REMARK   89  A    between atoms: _230  and  _231
REMARK   90  A    between atoms: _230  and  _233
REMARK   91  A    between atoms: _233  and  _234
REMARK   92  A    between atoms: _237  and  _239
REMARK   93  A    between atoms: _239  and  _240
REMARK   94  A    between atoms: _239  and  _242
REMARK   95  A    between atoms: _242  and  _243
REMARK   96  A    between atoms: _243  and  _244
REMARK   97  A    between atoms: _249  and  _251
REMARK   98  A    between atoms: _251  and  _252
REMARK   99  A    between atoms: _251  and  _254
REMARK  100  A    between atoms: _254  and  _255
REMARK  101  A    between atoms: _258  and  _260
REMARK  102  A    between atoms: _260  and  _261
REMARK  103  A    between atoms: _260  and  _263
REMARK  104  A    between atoms: _263  and  _264
REMARK  105  A    between atoms: _267  and  _269
REMARK  106  A    between atoms: _269  and  _270
REMARK  107  A    between atoms: _269  and  _272
REMARK  108  A    between atoms: _272  and  _273
REMARK  109  A    between atoms: _276  and  _278
REMARK  110  A    between atoms: _278  and  _279
REMARK  111  A    between atoms: _278  and  _281
REMARK  112  A    between atoms: _281  and  _282
REMARK  113  A    between atoms: _284  and  _286
REMARK  114  A    between atoms: _286  and  _287
REMARK  115  A    between atoms: _286  and  _289
REMARK  116  A    between atoms: _292  and  _294
REMARK  117  A    between atoms: _294  and  _295
REMARK  118  A    between atoms: _294  and  _297
REMARK  119  A    between atoms: _297  and  _298
REMARK  120  A    between atoms: _298  and  _299
REMARK  121  A    between atoms: _299  and  _300
REMARK  122  A    between atoms: _300  and  _301
REMARK  123  A    between atoms: _305  and  _307
REMARK  124  A    between atoms: _307  and  _308
REMARK  125  A    between atoms: _307  and  _310
REMARK  126  A    between atoms: _310  and  _311
REMARK  127  A    between atoms: _322  and  _323
REMARK  128  A    between atoms: _328  and  _330
REMARK  129  A    between atoms: _330  and  _331
REMARK  130  A    between atoms: _330  and  _333
REMARK  131  A    between atoms: _333  and  _334
REMARK  132  A    between atoms: _339  and  _341
REMARK  133  A    between atoms: _341  and  _342
REMARK  134  A    between atoms: _341  and  _344
REMARK  135  A    between atoms: _344  and  _345
REMARK  136  A    between atoms: _348  and  _350
REMARK  137  A    between atoms: _350  and  _351
REMARK  138  A    between atoms: _350  and  _353
REMARK  139  A    between atoms: _356  and  _358
REMARK  140  A    between atoms: _358  and  _359
REMARK  141  A    between atoms: _361  and  _363
REMARK  142  A    between atoms: _363  and  _364
REMARK  143  A    between atoms: _363  and  _366
REMARK  144  A    between atoms: _366  and  _367
REMARK  145  A    between atoms: _367  and  _368
REMARK  146  A    between atoms: _368  and  _369
REMARK  147  A    between atoms: _369  and  _370
REMARK  148  A    between atoms: _374  and  _376
REMARK  149  A    between atoms: _376  and  _377
REMARK  150  A    between atoms: _376  and  _379
REMARK  151  A    between atoms: _379  and  _380
REMARK  152  A    between atoms: _383  and  _385
REMARK  153  A    between atoms: _385  and  _386
REMARK  154  A    between atoms: _389  and  _391
REMARK  155  A    between atoms: _391  and  _392
REMARK  156  A    between atoms: _394  and  _396
REMARK  157  A    between atoms: _396  and  _397
REMARK  158  A    between atoms: _396  and  _399
REMARK  159  A    between atoms: _399  and  _400
REMARK  160  A    between atoms: _403  and  _405
REMARK  161  A    between atoms: _405  and  _406
REMARK  162  A    between atoms: _405  and  _408
REMARK  163  A    between atoms: _408  and  _409
REMARK  164  A    between atoms: _412  and  _414
REMARK  165  A    between atoms: _414  and  _415
REMARK  166  A    between atoms: _418  and  _420
REMARK  167  A    between atoms: _420  and  _421
REMARK  168  A    between atoms: _420  and  _423
REMARK  169  A    between atoms: _423  and  _424
REMARK  170  A    between atoms: _424  and  _425
REMARK  171  A    between atoms: _428  and  _430
REMARK  172  A    between atoms: _430  and  _431
REMARK  173  A    between atoms: _430  and  _433
REMARK  174  A    between atoms: _436  and  _438
REMARK  175  A    between atoms: _438  and  _439
REMARK  176  A    between atoms: _438  and  _441
REMARK  177  A    between atoms: _441  and  _442
REMARK  178  A    between atoms: _445  and  _447
REMARK  179  A    between atoms: _447  and  _448
REMARK  180  A    between atoms: _450  and  _452
REMARK  181  A    between atoms: _452  and  _453
REMARK  182  A    between atoms: _452  and  _455
REMARK  183  A    between atoms: _458  and  _460
REMARK  184  A    between atoms: _460  and  _461
REMARK  185  A    between atoms: _463  and  _465
REMARK  186  A    between atoms: _465  and  _466
REMARK  187  A    between atoms: _465  and  _468
REMARK  188  A    between atoms: _468  and  _469
REMARK  189  A    between atoms: _472  and  _474
REMARK  190  A    between atoms: _474  and  _475
REMARK  191  A    between atoms: _474  and  _477
REMARK  192  A    between atoms: _477  and  _478
REMARK  193  A    between atoms: _483  and  _485
REMARK  194  A    between atoms: _485  and  _486
REMARK  195  A    between atoms: _485  and  _488
REMARK  196  A    between atoms: _491  and  _493
REMARK  197  A    between atoms: _493  and  _494
REMARK  198  A    between atoms: _493  and  _496
REMARK  199  A    between atoms: _496  and  _497
REMARK  200  A    between atoms: _497  and  _498
REMARK  201  A    between atoms: _503  and  _505
REMARK  202  A    between atoms: _505  and  _506
REMARK  203  A    between atoms: _510  and  _511
REMARK  204  A    between atoms: _516  and  _518
REMARK  205  A    between atoms: _518  and  _519
REMARK  206  A    between atoms: _518  and  _521
REMARK  207  A    between atoms: _521  and  _522
REMARK  208  A    between atoms: _522  and  _523
REMARK  209  A    between atoms: _526  and  _528
REMARK  210  A    between atoms: _528  and  _529
REMARK  211  A    between atoms: _528  and  _531
REMARK  212  A    between atoms: _534  and  _536
REMARK  213  A    between atoms: _536  and  _537
REMARK  214  A    between atoms: _536  and  _539
REMARK  215  A    between atoms: _539  and  _540
REMARK  216  A    between atoms: _544  and  _545
REMARK  217  A    between atoms: _550  and  _552
REMARK  218  A    between atoms: _552  and  _553
REMARK  219  A    between atoms: _552  and  _555
REMARK  220  A    between atoms: _555  and  _556
REMARK  221  A    between atoms: _559  and  _561
REMARK  222  A    between atoms: _561  and  _562
REMARK  223  A    between atoms: _565  and  _567
REMARK  224  A    between atoms: _567  and  _568
REMARK  225  A    between atoms: _567  and  _570
REMARK  226  A    between atoms: _570  and  _571
REMARK  227  A    between atoms: _574  and  _576
REMARK  228  A    between atoms: _576  and  _577
REMARK  229  A    between atoms: _576  and  _579
REMARK  230  A    between atoms: _579  and  _580
REMARK  231  A    between atoms: _582  and  _584
REMARK  232  A    between atoms: _584  and  _585
REMARK  233  A    between atoms: _587  and  _589
REMARK  234  A    between atoms: _589  and  _590
REMARK  235  A    between atoms: _589  and  _592
REMARK  236  A    between atoms: _592  and  _593
REMARK  237  A    between atoms: _596  and  _598
REMARK  238  A    between atoms: _598  and  _599
REMARK  239  A    between atoms: _598  and  _601
REMARK                            x       y       z     vdW  Elec       q    Type
REMARK                         _______ _______ _______ _____ _____    ______ ____
ROOT
ATOM      1  O   HOH     1       0.259   1.679  18.154  0.00  0.00    +0.000 OA
ENDROOT
TORSDOF 0
REMARK  Name = ../refined-set-2016/3rux/3rux_pocket.pdb
REMARK  239 active torsions:
REMARK  status: ('A' for Active; 'I' for Inactive)
REMARK    1  A    between atoms: _1  and  _3
REMARK    2  A    between atoms: _3  and  _4
REMARK    3  A    between atoms: _3  and  _6
REMARK    4  A    between atoms: _6  and  _7
REMARK    5  A    between atoms: _10  and  _12
REMARK    6  A    between atoms: _12  and  _13
REMARK    7  A    between atoms: _15  and  _17
REMARK    8  A    between atoms: _17  and  _18
REMARK    9  A    between atoms: _17  and  _20
REMARK   10  A    between atoms: _20  and  _21
REMARK   11  A    between atoms: _23  and  _25
REMARK   12  A    between atoms: _25  and  _26
REMARK   13  A    between atoms: _25  and  _28
REMARK   14  A    between atoms: _28  and  _29
REMARK   15  A    between atoms: _32  and  _34
REMARK   16  A    between atoms: _34  and  _35
REMARK   17  A    between atoms: _34  and  _37
REMARK   18  A    between atoms: _37  and  _38
REMARK   19  A    between atoms: _43  and  _45
REMARK   20  A    between atoms: _45  and  _46
REMARK   21  A    between atoms: _49  and  _51
REMARK   22  A    between atoms: _51  and  _52
REMARK   23  A    between atoms: _51  and  _54
REMARK   24  A    between atoms: _54  and  _55
REMARK   25  A    between atoms: _58  and  _60
REMARK   26  A    between atoms: _60  and  _61
REMARK   27  A    between atoms: _60  and  _63
REMARK   28  A    between atoms: _63  and  _64
REMARK   29  A    between atoms: _67  and  _69
REMARK   30  A    between atoms: _69  and  _70
REMARK   31  A    between atoms: _69  and  _72
REMARK   32  A    between atoms: _72  and  _73
REMARK   33  A    between atoms: _76  and  _78
REMARK   34  A    between atoms: _78  and  _79
REMARK   35  A    between atoms: _78  and  _81
REMARK   36  A    between atoms: _81  and  _82
REMARK   37  A    between atoms: _85  and  _87
REMARK   38  A    between atoms: _87  and  _88
REMARK   39  A    between atoms: _91  and  _93
REMARK   40  A    between atoms: _93  and  _94
REMARK   41  A    between atoms: _93  and  _96
REMARK   42  A    between atoms: _96  and  _97
REMARK   43  A    between atoms: _97  and  _98
REMARK   44  A    between atoms: _103  and  _105
REMARK   45  A    between atoms: _105  and  _106
REMARK   46  A    between atoms: _105  and  _108
REMARK   47  A    between atoms: _108  and  _109
REMARK   48  A    between atoms: _112  and  _114
REMARK   49  A    between atoms: _114  and  _115
REMARK   50  A    between atoms: _118  and  _120
REMARK   51  A    between atoms: _120  and  _121
REMARK   52  A    between atoms: _123  and  _125
REMARK   53  A    between atoms: _125  and  _126
REMARK   54  A    between atoms: _125  and  _128
REMARK   55  A    between atoms: _128  and  _129
REMARK   56  A    between atoms: _129  and  _130
REMARK   57  A    between atoms: _130  and  _131
REMARK   58  A    between atoms: _140  and  _142
REMARK   59  A    between atoms: _142  and  _143
REMARK   60  A    between atoms: _145  and  _147
REMARK   61  A    between atoms: _147  and  _148
REMARK   62  A    between atoms: _147  and  _150
REMARK   63  A    between atoms: _150  and  _151
REMARK   64  A    between atoms: _151  and  _152
REMARK   65  A    between atoms: _152  and  _153
REMARK   66  A    between atoms: _162  and  _164
REMARK   67  A    between atoms: _164  and  _165
REMARK   68  A    between atoms: _164  and  _167
REMARK   69  A    between atoms: _167  and  _168
REMARK   70  A    between atoms: _173  and  _175
REMARK   71  A    between atoms: _175  and  _176
REMARK   72  A    between atoms: _178  and  _180
REMARK   73  A    between atoms: _180  and  _181
REMARK   74  A    between atoms: _180  and  _183
REMARK   75  A    between atoms: _183  and  _184
REMARK   76  A    between atoms: _184  and  _185
REMARK   77  A    between atoms: _185  and  _186
REMARK   78  A    between atoms: _195  and  _197
REMARK   79  A    between atoms: _197  and  _198
REMARK   80  A    between atoms: _200  and  _202
REMARK   81  A    between atoms: _202  and  _203
REMARK   82  A    between atoms: _202  and  _205
REMARK   83  A    between atoms: _205  and  _206
REMARK   84  A    between atoms: _216  and  _218
REMARK   85  A    between atoms: _218  and  _219
REMARK   86  A    between atoms: _222  and  _224
REMARK   87  A    between atoms: _224  and  _225
REMARK   88  A    between atoms: _228  and  _230
REMARK   89  A    between atoms: _230  and  _231
REMARK   90  A    between atoms: _230  and  _233
REMARK   91  A    between atoms: _233  and  _234
REMARK   92  A    between atoms: _237  and  _239
REMARK   93  A    between atoms: _239  and  _240
REMARK   94  A    between atoms: _239  and  _242
REMARK   95  A    between atoms: _242  and  _243
REMARK   96  A    between atoms: _243  and  _244
REMARK   97  A    between atoms: _249  and  _251
REMARK   98  A    between atoms: _251  and  _252
REMARK   99  A    between atoms: _251  and  _254
REMARK  100  A    between atoms: _254  and  _255
REMARK  101  A    between atoms: _258  and  _260
REMARK  102  A    between atoms: _260  and  _261
REMARK  103  A    between atoms: _260  and  _263
REMARK  104  A    between atoms: _263  and  _264
REMARK  105  A    between atoms: _267  and  _269
REMARK  106  A    between atoms: _269  and  _270
REMARK  107  A    between atoms: _269  and  _272
REMARK  108  A    between atoms: _272  and  _273
REMARK  109  A    between atoms: _276  and  _278
REMARK  110  A    between atoms: _278  and  _279
REMARK  111  A    between atoms: _278  and  _281
REMARK  112  A    between atoms: _281  and  _282
REMARK  113  A    between atoms: _284  and  _286
REMARK  114  A    between atoms: _286  and  _287
REMARK  115  A    between atoms: _286  and  _289
REMARK  116  A    between atoms: _292  and  _294
REMARK  117  A    between atoms: _294  and  _295
REMARK  118  A    between atoms: _294  and  _297
REMARK  119  A    between atoms: _297  and  _298
REMARK  120  A    between atoms: _298  and  _299
REMARK  121  A    between atoms: _299  and  _300
REMARK  122  A    between atoms: _300  and  _301
REMARK  123  A    between atoms: _305  and  _307
REMARK  124  A    between atoms: _307  and  _308
REMARK  125  A    between atoms: _307  and  _310
REMARK  126  A    between atoms: _310  and  _311
REMARK  127  A    between atoms: _322  and  _323
REMARK  128  A    between atoms: _328  and  _330
REMARK  129  A    between atoms: _330  and  _331
REMARK  130  A    between atoms: _330  and  _333
REMARK  131  A    between atoms: _333  and  _334
REMARK  132  A    between atoms: _339  and  _341
REMARK  133  A    between atoms: _341  and  _342
REMARK  134  A    between atoms: _341  and  _344
REMARK  135  A    between atoms: _344  and  _345
REMARK  136  A    between atoms: _348  and  _350
REMARK  137  A    between atoms: _350  and  _351
REMARK  138  A    between atoms: _350  and  _353
REMARK  139  A    between atoms: _356  and  _358
REMARK  140  A    between atoms: _358  and  _359
REMARK  141  A    between atoms: _361  and  _363
REMARK  142  A    between atoms: _363  and  _364
REMARK  143  A    between atoms: _363  and  _366
REMARK  144  A    between atoms: _366  and  _367
REMARK  145  A    between atoms: _367  and  _368
REMARK  146  A    between atoms: _368  and  _369
REMARK  147  A    between atoms: _369  and  _370
REMARK  148  A    between atoms: _374  and  _376
REMARK  149  A    between atoms: _376  and  _377
REMARK  150  A    between atoms: _376  and  _379
REMARK  151  A    between atoms: _379  and  _380
REMARK  152  A    between atoms: _383  and  _385
REMARK  153  A    between atoms: _385  and  _386
REMARK  154  A    between atoms: _389  and  _391
REMARK  155  A    between atoms: _391  and  _392
REMARK  156  A    between atoms: _394  and  _396
REMARK  157  A    between atoms: _396  and  _397
REMARK  158  A    between atoms: _396  and  _399
REMARK  159  A    between atoms: _399  and  _400
REMARK  160  A    between atoms: _403  and  _405
REMARK  161  A    between atoms: _405  and  _406
REMARK  162  A    between atoms: _405  and  _408
REMARK  163  A    between atoms: _408  and  _409
REMARK  164  A    between atoms: _412  and  _414
REMARK  165  A    between atoms: _414  and  _415
REMARK  166  A    between atoms: _418  and  _420
REMARK  167  A    between atoms: _420  and  _421
REMARK  168  A    between atoms: _420  and  _423
REMARK  169  A    between atoms: _423  and  _424
REMARK  170  A    between atoms: _424  and  _425
REMARK  171  A    between atoms: _428  and  _430
REMARK  172  A    between atoms: _430  and  _431
REMARK  173  A    between atoms: _430  and  _433
REMARK  174  A    between atoms: _436  and  _438
REMARK  175  A    between atoms: _438  and  _439
REMARK  176  A    between atoms: _438  and  _441
REMARK  177  A    between atoms: _441  and  _442
REMARK  178  A    between atoms: _445  and  _447
REMARK  179  A    between atoms: _447  and  _448
REMARK  180  A    between atoms: _450  and  _452
REMARK  181  A    between atoms: _452  and  _453
REMARK  182  A    between atoms: _452  and  _455
REMARK  183  A    between atoms: _458  and  _460
REMARK  184  A    between atoms: _460  and  _461
REMARK  185  A    between atoms: _463  and  _465
REMARK  186  A    between atoms: _465  and  _466
REMARK  187  A    between atoms: _465  and  _468
REMARK  188  A    between atoms: _468  and  _469
REMARK  189  A    between atoms: _472  and  _474
REMARK  190  A    between atoms: _474  and  _475
REMARK  191  A    between atoms: _474  and  _477
REMARK  192  A    between atoms: _477  and  _478
REMARK  193  A    between atoms: _483  and  _485
REMARK  194  A    between atoms: _485  and  _486
REMARK  195  A    between atoms: _485  and  _488
REMARK  196  A    between atoms: _491  and  _493
REMARK  197  A    between atoms: _493  and  _494
REMARK  198  A    between atoms: _493  and  _496
REMARK  199  A    between atoms: _496  and  _497
REMARK  200  A    between atoms: _497  and  _498
REMARK  201  A    between atoms: _503  and  _505
REMARK  202  A    between atoms: _505  and  _506
REMARK  203  A    between atoms: _510  and  _511
REMARK  204  A    between atoms: _516  and  _518
REMARK  205  A    between atoms: _518  and  _519
REMARK  206  A    between atoms: _518  and  _521
REMARK  207  A    between atoms: _521  and  _522
REMARK  208  A    between atoms: _522  and  _523
REMARK  209  A    between atoms: _526  and  _528
REMARK  210  A    between atoms: _528  and  _529
REMARK  211  A    between atoms: _528  and  _531
REMARK  212  A    between atoms: _534  and  _536
REMARK  213  A    between atoms: _536  and  _537
REMARK  214  A    between atoms: _536  and  _539
REMARK  215  A    between atoms: _539  and  _540
REMARK  216  A    between atoms: _544  and  _545
REMARK  217  A    between atoms: _550  and  _552
REMARK  218  A    between atoms: _552  and  _553
REMARK  219  A    between atoms: _552  and  _555
REMARK  220  A    between atoms: _555  and  _556
REMARK  221  A    between atoms: _559  and  _561
REMARK  222  A    between atoms: _561  and  _562
REMARK  223  A    between atoms: _565  and  _567
REMARK  224  A    between atoms: _567  and  _568
REMARK  225  A    between atoms: _567  and  _570
REMARK  226  A    between atoms: _570  and  _571
REMARK  227  A    between atoms: _574  and  _576
REMARK  228  A    between atoms: _576  and  _577
REMARK  229  A    between atoms: _576  and  _579
REMARK  230  A    between atoms: _579  and  _580
REMARK  231  A    between atoms: _582  and  _584
REMARK  232  A    between atoms: _584  and  _585
REMARK  233  A    between atoms: _587  and  _589
REMARK  234  A    between atoms: _589  and  _590
REMARK  235  A    between atoms: _589  and  _592
REMARK  236  A    between atoms: _592  and  _593
REMARK  237  A    between atoms: _596  and  _598
REMARK  238  A    between atoms: _598  and  _599
REMARK  239  A    between atoms: _598  and  _601
REMARK                            x       y       z     vdW  Elec       q    Type
REMARK                         _______ _______ _______ _____ _____    ______ ____
ROOT
ATOM      1  O   HOH     1       3.070  -8.951   6.592  0.00  0.00    +0.000 OA
ENDROOT
TORSDOF 0
REMARK  Name = ../refined-set-2016/3rux/3rux_pocket.pdb
REMARK  239 active torsions:
REMARK  status: ('A' for Active; 'I' for Inactive)
REMARK    1  A    between atoms: _1  and  _3
REMARK    2  A    between atoms: _3  and  _4
REMARK    3  A    between atoms: _3  and  _6
REMARK    4  A    between atoms: _6  and  _7
REMARK    5  A    between atoms: _10  and  _12
REMARK    6  A    between atoms: _12  and  _13
REMARK    7  A    between atoms: _15  and  _17
REMARK    8  A    between atoms: _17  and  _18
REMARK    9  A    between atoms: _17  and  _20
REMARK   10  A    between atoms: _20  and  _21
REMARK   11  A    between atoms: _23  and  _25
REMARK   12  A    between atoms: _25  and  _26
REMARK   13  A    between atoms: _25  and  _28
REMARK   14  A    between atoms: _28  and  _29
REMARK   15  A    between atoms: _32  and  _34
REMARK   16  A    between atoms: _34  and  _35
REMARK   17  A    between atoms: _34  and  _37
REMARK   18  A    between atoms: _37  and  _38
REMARK   19  A    between atoms: _43  and  _45
REMARK   20  A    between atoms: _45  and  _46
REMARK   21  A    between atoms: _49  and  _51
REMARK   22  A    between atoms: _51  and  _52
REMARK   23  A    between atoms: _51  and  _54
REMARK   24  A    between atoms: _54  and  _55
REMARK   25  A    between atoms: _58  and  _60
REMARK   26  A    between atoms: _60  and  _61
REMARK   27  A    between atoms: _60  and  _63
REMARK   28  A    between atoms: _63  and  _64
REMARK   29  A    between atoms: _67  and  _69
REMARK   30  A    between atoms: _69  and  _70
REMARK   31  A    between atoms: _69  and  _72
REMARK   32  A    between atoms: _72  and  _73
REMARK   33  A    between atoms: _76  and  _78
REMARK   34  A    between atoms: _78  and  _79
REMARK   35  A    between atoms: _78  and  _81
REMARK   36  A    between atoms: _81  and  _82
REMARK   37  A    between atoms: _85  and  _87
REMARK   38  A    between atoms: _87  and  _88
REMARK   39  A    between atoms: _91  and  _93
REMARK   40  A    between atoms: _93  and  _94
REMARK   41  A    between atoms: _93  and  _96
REMARK   42  A    between atoms: _96  and  _97
REMARK   43  A    between atoms: _97  and  _98
REMARK   44  A    between atoms: _103  and  _105
REMARK   45  A    between atoms: _105  and  _106
REMARK   46  A    between atoms: _105  and  _108
REMARK   47  A    between atoms: _108  and  _109
REMARK   48  A    between atoms: _112  and  _114
REMARK   49  A    between atoms: _114  and  _115
REMARK   50  A    between atoms: _118  and  _120
REMARK   51  A    between atoms: _120  and  _121
REMARK   52  A    between atoms: _123  and  _125
REMARK   53  A    between atoms: _125  and  _126
REMARK   54  A    between atoms: _125  and  _128
REMARK   55  A    between atoms: _128  and  _129
REMARK   56  A    between atoms: _129  and  _130
REMARK   57  A    between atoms: _130  and  _131
REMARK   58  A    between atoms: _140  and  _142
REMARK   59  A    between atoms: _142  and  _143
REMARK   60  A    between atoms: _145  and  _147
REMARK   61  A    between atoms: _147  and  _148
REMARK   62  A    between atoms: _147  and  _150
REMARK   63  A    between atoms: _150  and  _151
REMARK   64  A    between atoms: _151  and  _152
REMARK   65  A    between atoms: _152  and  _153
REMARK   66  A    between atoms: _162  and  _164
REMARK   67  A    between atoms: _164  and  _165
REMARK   68  A    between atoms: _164  and  _167
REMARK   69  A    between atoms: _167  and  _168
REMARK   70  A    between atoms: _173  and  _175
REMARK   71  A    between atoms: _175  and  _176
REMARK   72  A    between atoms: _178  and  _180
REMARK   73  A    between atoms: _180  and  _181
REMARK   74  A    between atoms: _180  and  _183
REMARK   75  A    between atoms: _183  and  _184
REMARK   76  A    between atoms: _184  and  _185
REMARK   77  A    between atoms: _185  and  _186
REMARK   78  A    between atoms: _195  and  _197
REMARK   79  A    between atoms: _197  and  _198
REMARK   80  A    between atoms: _200  and  _202
REMARK   81  A    between atoms: _202  and  _203
REMARK   82  A    between atoms: _202  and  _205
REMARK   83  A    between atoms: _205  and  _206
REMARK   84  A    between atoms: _216  and  _218
REMARK   85  A    between atoms: _218  and  _219
REMARK   86  A    between atoms: _222  and  _224
REMARK   87  A    between atoms: _224  and  _225
REMARK   88  A    between atoms: _228  and  _230
REMARK   89  A    between atoms: _230  and  _231
REMARK   90  A    between atoms: _230  and  _233
REMARK   91  A    between atoms: _233  and  _234
REMARK   92  A    between atoms: _237  and  _239
REMARK   93  A    between atoms: _239  and  _240
REMARK   94  A    between atoms: _239  and  _242
REMARK   95  A    between atoms: _242  and  _243
REMARK   96  A    between atoms: _243  and  _244
REMARK   97  A    between atoms: _249  and  _251
REMARK   98  A    between atoms: _251  and  _252
REMARK   99  A    between atoms: _251  and  _254
REMARK  100  A    between atoms: _254  and  _255
REMARK  101  A    between atoms: _258  and  _260
REMARK  102  A    between atoms: _260  and  _261
REMARK  103  A    between atoms: _260  and  _263
REMARK  104  A    between atoms: _263  and  _264
REMARK  105  A    between atoms: _267  and  _269
REMARK  106  A    between atoms: _269  and  _270
REMARK  107  A    between atoms: _269  and  _272
REMARK  108  A    between atoms: _272  and  _273
REMARK  109  A    between atoms: _276  and  _278
REMARK  110  A    between atoms: _278  and  _279
REMARK  111  A    between atoms: _278  and  _281
REMARK  112  A    between atoms: _281  and  _282
REMARK  113  A    between atoms: _284  and  _286
REMARK  114  A    between atoms: _286  and  _287
REMARK  115  A    between atoms: _286  and  _289
REMARK  116  A    between atoms: _292  and  _294
REMARK  117  A    between atoms: _294  and  _295
REMARK  118  A    between atoms: _294  and  _297
REMARK  119  A    between atoms: _297  and  _298
REMARK  120  A    between atoms: _298  and  _299
REMARK  121  A    between atoms: _299  and  _300
REMARK  122  A    between atoms: _300  and  _301
REMARK  123  A    between atoms: _305  and  _307
REMARK  124  A    between atoms: _307  and  _308
REMARK  125  A    between atoms: _307  and  _310
REMARK  126  A    between atoms: _310  and  _311
REMARK  127  A    between atoms: _322  and  _323
REMARK  128  A    between atoms: _328  and  _330
REMARK  129  A    between atoms: _330  and  _331
REMARK  130  A    between atoms: _330  and  _333
REMARK  131  A    between atoms: _333  and  _334
REMARK  132  A    between atoms: _339  and  _341
REMARK  133  A    between atoms: _341  and  _342
REMARK  134  A    between atoms: _341  and  _344
REMARK  135  A    between atoms: _344  and  _345
REMARK  136  A    between atoms: _348  and  _350
REMARK  137  A    between atoms: _350  and  _351
REMARK  138  A    between atoms: _350  and  _353
REMARK  139  A    between atoms: _356  and  _358
REMARK  140  A    between atoms: _358  and  _359
REMARK  141  A    between atoms: _361  and  _363
REMARK  142  A    between atoms: _363  and  _364
REMARK  143  A    between atoms: _363  and  _366
REMARK  144  A    between atoms: _366  and  _367
REMARK  145  A    between atoms: _367  and  _368
REMARK  146  A    between atoms: _368  and  _369
REMARK  147  A    between atoms: _369  and  _370
REMARK  148  A    between atoms: _374  and  _376
REMARK  149  A    between atoms: _376  and  _377
REMARK  150  A    between atoms: _376  and  _379
REMARK  151  A    between atoms: _379  and  _380
REMARK  152  A    between atoms: _383  and  _385
REMARK  153  A    between atoms: _385  and  _386
REMARK  154  A    between atoms: _389  and  _391
REMARK  155  A    between atoms: _391  and  _392
REMARK  156  A    between atoms: _394  and  _396
REMARK  157  A    between atoms: _396  and  _397
REMARK  158  A    between atoms: _396  and  _399
REMARK  159  A    between atoms: _399  and  _400
REMARK  160  A    between atoms: _403  and  _405
REMARK  161  A    between atoms: _405  and  _406
REMARK  162  A    between atoms: _405  and  _408
REMARK  163  A    between atoms: _408  and  _409
REMARK  164  A    between atoms: _412  and  _414
REMARK  165  A    between atoms: _414  and  _415
REMARK  166  A    between atoms: _418  and  _420
REMARK  167  A    between atoms: _420  and  _421
REMARK  168  A    between atoms: _420  and  _423
REMARK  169  A    between atoms: _423  and  _424
REMARK  170  A    between atoms: _424  and  _425
REMARK  171  A    between atoms: _428  and  _430
REMARK  172  A    between atoms: _430  and  _431
REMARK  173  A    between atoms: _430  and  _433
REMARK  174  A    between atoms: _436  and  _438
REMARK  175  A    between atoms: _438  and  _439
REMARK  176  A    between atoms: _438  and  _441
REMARK  177  A    between atoms: _441  and  _442
REMARK  178  A    between atoms: _445  and  _447
REMARK  179  A    between atoms: _447  and  _448
REMARK  180  A    between atoms: _450  and  _452
REMARK  181  A    between atoms: _452  and  _453
REMARK  182  A    between atoms: _452  and  _455
REMARK  183  A    between atoms: _458  and  _460
REMARK  184  A    between atoms: _460  and  _461
REMARK  185  A    between atoms: _463  and  _465
REMARK  186  A    between atoms: _465  and  _466
REMARK  187  A    between atoms: _465  and  _468
REMARK  188  A    between atoms: _468  and  _469
REMARK  189  A    between atoms: _472  and  _474
REMARK  190  A    between atoms: _474  and  _475
REMARK  191  A    between atoms: _474  and  _477
REMARK  192  A    between atoms: _477  and  _478
REMARK  193  A    between atoms: _483  and  _485
REMARK  194  A    between atoms: _485  and  _486
REMARK  195  A    between atoms: _485  and  _488
REMARK  196  A    between atoms: _491  and  _493
REMARK  197  A    between atoms: _493  and  _494
REMARK  198  A    between atoms: _493  and  _496
REMARK  199  A    between atoms: _496  and  _497
REMARK  200  A    between atoms: _497  and  _498
REMARK  201  A    between atoms: _503  and  _505
REMARK  202  A    between atoms: _505  and  _506
REMARK  203  A    between atoms: _510  and  _511
REMARK  204  A    between atoms: _516  and  _518
REMARK  205  A    between atoms: _518  and  _519
REMARK  206  A    between atoms: _518  and  _521
REMARK  207  A    between atoms: _521  and  _522
REMARK  208  A    between atoms: _522  and  _523
REMARK  209  A    between atoms: _526  and  _528
REMARK  210  A    between atoms: _528  and  _529
REMARK  211  A    between atoms: _528  and  _531
REMARK  212  A    between atoms: _534  and  _536
REMARK  213  A    between atoms: _536  and  _537
REMARK  214  A    between atoms: _536  and  _539
REMARK  215  A    between atoms: _539  and  _540
REMARK  216  A    between atoms: _544  and  _545
REMARK  217  A    between atoms: _550  and  _552
REMARK  218  A    between atoms: _552  and  _553
REMARK  219  A    between atoms: _552  and  _555
REMARK  220  A    between atoms: _555  and  _556
REMARK  221  A    between atoms: _559  and  _561
REMARK  222  A    between atoms: _561  and  _562
REMARK  223  A    between atoms: _565  and  _567
REMARK  224  A    between atoms: _567  and  _568
REMARK  225  A    between atoms: _567  and  _570
REMARK  226  A    between atoms: _570  and  _571
REMARK  227  A    between atoms: _574  and  _576
REMARK  228  A    between atoms: _576  and  _577
REMARK  229  A    between atoms: _576  and  _579
REMARK  230  A    between atoms: _579  and  _580
REMARK  231  A    between atoms: _582  and  _584
REMARK  232  A    between atoms: _584  and  _585
REMARK  233  A    between atoms: _587  and  _589
REMARK  234  A    between atoms: _589  and  _590
REMARK  235  A    between atoms: _589  and  _592
REMARK  236  A    between atoms: _592  and  _593
REMARK  237  A    between atoms: _596  and  _598
REMARK  238  A    between atoms: _598  and  _599
REMARK  239  A    between atoms: _598  and  _601
REMARK                            x       y       z     vdW  Elec       q    Type
REMARK                         _______ _______ _______ _____ _____    ______ ____
ROOT
ATOM      1  O   HOH     1       1.439   0.248  13.558  0.00  0.00    +0.000 OA
ENDROOT
TORSDOF 0
REMARK  Name = ../refined-set-2016/3rux/3rux_pocket.pdb
REMARK  239 active torsions:
REMARK  status: ('A' for Active; 'I' for Inactive)
REMARK    1  A    between atoms: _1  and  _3
REMARK    2  A    between atoms: _3  and  _4
REMARK    3  A    between atoms: _3  and  _6
REMARK    4  A    between atoms: _6  and  _7
REMARK    5  A    between atoms: _10  and  _12
REMARK    6  A    between atoms: _12  and  _13
REMARK    7  A    between atoms: _15  and  _17
REMARK    8  A    between atoms: _17  and  _18
REMARK    9  A    between atoms: _17  and  _20
REMARK   10  A    between atoms: _20  and  _21
REMARK   11  A    between atoms: _23  and  _25
REMARK   12  A    between atoms: _25  and  _26
REMARK   13  A    between atoms: _25  and  _28
REMARK   14  A    between atoms: _28  and  _29
REMARK   15  A    between atoms: _32  and  _34
REMARK   16  A    between atoms: _34  and  _35
REMARK   17  A    between atoms: _34  and  _37
REMARK   18  A    between atoms: _37  and  _38
REMARK   19  A    between atoms: _43  and  _45
REMARK   20  A    between atoms: _45  and  _46
REMARK   21  A    between atoms: _49  and  _51
REMARK   22  A    between atoms: _51  and  _52
REMARK   23  A    between atoms: _51  and  _54
REMARK   24  A    between atoms: _54  and  _55
REMARK   25  A    between atoms: _58  and  _60
REMARK   26  A    between atoms: _60  and  _61
REMARK   27  A    between atoms: _60  and  _63
REMARK   28  A    between atoms: _63  and  _64
REMARK   29  A    between atoms: _67  and  _69
REMARK   30  A    between atoms: _69  and  _70
REMARK   31  A    between atoms: _69  and  _72
REMARK   32  A    between atoms: _72  and  _73
REMARK   33  A    between atoms: _76  and  _78
REMARK   34  A    between atoms: _78  and  _79
REMARK   35  A    between atoms: _78  and  _81
REMARK   36  A    between atoms: _81  and  _82
REMARK   37  A    between atoms: _85  and  _87
REMARK   38  A    between atoms: _87  and  _88
REMARK   39  A    between atoms: _91  and  _93
REMARK   40  A    between atoms: _93  and  _94
REMARK   41  A    between atoms: _93  and  _96
REMARK   42  A    between atoms: _96  and  _97
REMARK   43  A    between atoms: _97  and  _98
REMARK   44  A    between atoms: _103  and  _105
REMARK   45  A    between atoms: _105  and  _106
REMARK   46  A    between atoms: _105  and  _108
REMARK   47  A    between atoms: _108  and  _109
REMARK   48  A    between atoms: _112  and  _114
REMARK   49  A    between atoms: _114  and  _115
REMARK   50  A    between atoms: _118  and  _120
REMARK   51  A    between atoms: _120  and  _121
REMARK   52  A    between atoms: _123  and  _125
REMARK   53  A    between atoms: _125  and  _126
REMARK   54  A    between atoms: _125  and  _128
REMARK   55  A    between atoms: _128  and  _129
REMARK   56  A    between atoms: _129  and  _130
REMARK   57  A    between atoms: _130  and  _131
REMARK   58  A    between atoms: _140  and  _142
REMARK   59  A    between atoms: _142  and  _143
REMARK   60  A    between atoms: _145  and  _147
REMARK   61  A    between atoms: _147  and  _148
REMARK   62  A    between atoms: _147  and  _150
REMARK   63  A    between atoms: _150  and  _151
REMARK   64  A    between atoms: _151  and  _152
REMARK   65  A    between atoms: _152  and  _153
REMARK   66  A    between atoms: _162  and  _164
REMARK   67  A    between atoms: _164  and  _165
REMARK   68  A    between atoms: _164  and  _167
REMARK   69  A    between atoms: _167  and  _168
REMARK   70  A    between atoms: _173  and  _175
REMARK   71  A    between atoms: _175  and  _176
REMARK   72  A    between atoms: _178  and  _180
REMARK   73  A    between atoms: _180  and  _181
REMARK   74  A    between atoms: _180  and  _183
REMARK   75  A    between atoms: _183  and  _184
REMARK   76  A    between atoms: _184  and  _185
REMARK   77  A    between atoms: _185  and  _186
REMARK   78  A    between atoms: _195  and  _197
REMARK   79  A    between atoms: _197  and  _198
REMARK   80  A    between atoms: _200  and  _202
REMARK   81  A    between atoms: _202  and  _203
REMARK   82  A    between atoms: _202  and  _205
REMARK   83  A    between atoms: _205  and  _206
REMARK   84  A    between atoms: _216  and  _218
REMARK   85  A    between atoms: _218  and  _219
REMARK   86  A    between atoms: _222  and  _224
REMARK   87  A    between atoms: _224  and  _225
REMARK   88  A    between atoms: _228  and  _230
REMARK   89  A    between atoms: _230  and  _231
REMARK   90  A    between atoms: _230  and  _233
REMARK   91  A    between atoms: _233  and  _234
REMARK   92  A    between atoms: _237  and  _239
REMARK   93  A    between atoms: _239  and  _240
REMARK   94  A    between atoms: _239  and  _242
REMARK   95  A    between atoms: _242  and  _243
REMARK   96  A    between atoms: _243  and  _244
REMARK   97  A    between atoms: _249  and  _251
REMARK   98  A    between atoms: _251  and  _252
REMARK   99  A    between atoms: _251  and  _254
REMARK  100  A    between atoms: _254  and  _255
REMARK  101  A    between atoms: _258  and  _260
REMARK  102  A    between atoms: _260  and  _261
REMARK  103  A    between atoms: _260  and  _263
REMARK  104  A    between atoms: _263  and  _264
REMARK  105  A    between atoms: _267  and  _269
REMARK  106  A    between atoms: _269  and  _270
REMARK  107  A    between atoms: _269  and  _272
REMARK  108  A    between atoms: _272  and  _273
REMARK  109  A    between atoms: _276  and  _278
REMARK  110  A    between atoms: _278  and  _279
REMARK  111  A    between atoms: _278  and  _281
REMARK  112  A    between atoms: _281  and  _282
REMARK  113  A    between atoms: _284  and  _286
REMARK  114  A    between atoms: _286  and  _287
REMARK  115  A    between atoms: _286  and  _289
REMARK  116  A    between atoms: _292  and  _294
REMARK  117  A    between atoms: _294  and  _295
REMARK  118  A    between atoms: _294  and  _297
REMARK  119  A    between atoms: _297  and  _298
REMARK  120  A    between atoms: _298  and  _299
REMARK  121  A    between atoms: _299  and  _300
REMARK  122  A    between atoms: _300  and  _301
REMARK  123  A    between atoms: _305  and  _307
REMARK  124  A    between atoms: _307  and  _308
REMARK  125  A    between atoms: _307  and  _310
REMARK  126  A    between atoms: _310  and  _311
REMARK  127  A    between atoms: _322  and  _323
REMARK  128  A    between atoms: _328  and  _330
REMARK  129  A    between atoms: _330  and  _331
REMARK  130  A    between atoms: _330  and  _333
REMARK  131  A    between atoms: _333  and  _334
REMARK  132  A    between atoms: _339  and  _341
REMARK  133  A    between atoms: _341  and  _342
REMARK  134  A    between atoms: _341  and  _344
REMARK  135  A    between atoms: _344  and  _345
REMARK  136  A    between atoms: _348  and  _350
REMARK  137  A    between atoms: _350  and  _351
REMARK  138  A    between atoms: _350  and  _353
REMARK  139  A    between atoms: _356  and  _358
REMARK  140  A    between atoms: _358  and  _359
REMARK  141  A    between atoms: _361  and  _363
REMARK  142  A    between atoms: _363  and  _364
REMARK  143  A    between atoms: _363  and  _366
REMARK  144  A    between atoms: _366  and  _367
REMARK  145  A    between atoms: _367  and  _368
REMARK  146  A    between atoms: _368  and  _369
REMARK  147  A    between atoms: _369  and  _370
REMARK  148  A    between atoms: _374  and  _376
REMARK  149  A    between atoms: _376  and  _377
REMARK  150  A    between atoms: _376  and  _379
REMARK  151  A    between atoms: _379  and  _380
REMARK  152  A    between atoms: _383  and  _385
REMARK  153  A    between atoms: _385  and  _386
REMARK  154  A    between atoms: _389  and  _391
REMARK  155  A    between atoms: _391  and  _392
REMARK  156  A    between atoms: _394  and  _396
REMARK  157  A    between atoms: _396  and  _397
REMARK  158  A    between atoms: _396  and  _399
REMARK  159  A    between atoms: _399  and  _400
REMARK  160  A    between atoms: _403  and  _405
REMARK  161  A    between atoms: _405  and  _406
REMARK  162  A    between atoms: _405  and  _408
REMARK  163  A    between atoms: _408  and  _409
REMARK  164  A    between atoms: _412  and  _414
REMARK  165  A    between atoms: _414  and  _415
REMARK  166  A    between atoms: _418  and  _420
REMARK  167  A    between atoms: _420  and  _421
REMARK  168  A    between atoms: _420  and  _423
REMARK  169  A    between atoms: _423  and  _424
REMARK  170  A    between atoms: _424  and  _425
REMARK  171  A    between atoms: _428  and  _430
REMARK  172  A    between atoms: _430  and  _431
REMARK  173  A    between atoms: _430  and  _433
REMARK  174  A    between atoms: _436  and  _438
REMARK  175  A    between atoms: _438  and  _439
REMARK  176  A    between atoms: _438  and  _441
REMARK  177  A    between atoms: _441  and  _442
REMARK  178  A    between atoms: _445  and  _447
REMARK  179  A    between atoms: _447  and  _448
REMARK  180  A    between atoms: _450  and  _452
REMARK  181  A    between atoms: _452  and  _453
REMARK  182  A    between atoms: _452  and  _455
REMARK  183  A    between atoms: _458  and  _460
REMARK  184  A    between atoms: _460  and  _461
REMARK  185  A    between atoms: _463  and  _465
REMARK  186  A    between atoms: _465  and  _466
REMARK  187  A    between atoms: _465  and  _468
REMARK  188  A    between atoms: _468  and  _469
REMARK  189  A    between atoms: _472  and  _474
REMARK  190  A    between atoms: _474  and  _475
REMARK  191  A    between atoms: _474  and  _477
REMARK  192  A    between atoms: _477  and  _478
REMARK  193  A    between atoms: _483  and  _485
REMARK  194  A    between atoms: _485  and  _486
REMARK  195  A    between atoms: _485  and  _488
REMARK  196  A    between atoms: _491  and  _493
REMARK  197  A    between atoms: _493  and  _494
REMARK  198  A    between atoms: _493  and  _496
REMARK  199  A    between atoms: _496  and  _497
REMARK  200  A    between atoms: _497  and  _498
REMARK  201  A    between atoms: _503  and  _505
REMARK  202  A    between atoms: _505  and  _506
REMARK  203  A    between atoms: _510  and  _511
REMARK  204  A    between atoms: _516  and  _518
REMARK  205  A    between atoms: _518  and  _519
REMARK  206  A    between atoms: _518  and  _521
REMARK  207  A    between atoms: _521  and  _522
REMARK  208  A    between atoms: _522  and  _523
REMARK  209  A    between atoms: _526  and  _528
REMARK  210  A    between atoms: _528  and  _529
REMARK  211  A    between atoms: _528  and  _531
REMARK  212  A    between atoms: _534  and  _536
REMARK  213  A    between atoms: _536  and  _537
REMARK  214  A    between atoms: _536  and  _539
REMARK  215  A    between atoms: _539  and  _540
REMARK  216  A    between atoms: _544  and  _545
REMARK  217  A    between atoms: _550  and  _552
REMARK  218  A    between atoms: _552  and  _553
REMARK  219  A    between atoms: _552  and  _555
REMARK  220  A    between atoms: _555  and  _556
REMARK  221  A    between atoms: _559  and  _561
REMARK  222  A    between atoms: _561  and  _562
REMARK  223  A    between atoms: _565  and  _567
REMARK  224  A    between atoms: _567  and  _568
REMARK  225  A    between atoms: _567  and  _570
REMARK  226  A    between atoms: _570  and  _571
REMARK  227  A    between atoms: _574  and  _576
REMARK  228  A    between atoms: _576  and  _577
REMARK  229  A    between atoms: _576  and  _579
REMARK  230  A    between atoms: _579  and  _580
REMARK  231  A    between atoms: _582  and  _584
REMARK  232  A    between atoms: _584  and  _585
REMARK  233  A    between atoms: _587  and  _589
REMARK  234  A    between atoms: _589  and  _590
REMARK  235  A    between atoms: _589  and  _592
REMARK  236  A    between atoms: _592  and  _593
REMARK  237  A    between atoms: _596  and  _598
REMARK  238  A    between atoms: _598  and  _599
REMARK  239  A    between atoms: _598  and  _601
REMARK                            x       y       z     vdW  Elec       q    Type
REMARK                         _______ _______ _______ _____ _____    ______ ____
ROOT
ATOM      1  O   HOH     1      -2.530   4.364  10.220  0.00  0.00    +0.000 OA
ENDROOT
TORSDOF 0
REMARK  Name = ../refined-set-2016/3rux/3rux_pocket.pdb
REMARK  239 active torsions:
REMARK  status: ('A' for Active; 'I' for Inactive)
REMARK    1  A    between atoms: _1  and  _3
REMARK    2  A    between atoms: _3  and  _4
REMARK    3  A    between atoms: _3  and  _6
REMARK    4  A    between atoms: _6  and  _7
REMARK    5  A    between atoms: _10  and  _12
REMARK    6  A    between atoms: _12  and  _13
REMARK    7  A    between atoms: _15  and  _17
REMARK    8  A    between atoms: _17  and  _18
REMARK    9  A    between atoms: _17  and  _20
REMARK   10  A    between atoms: _20  and  _21
REMARK   11  A    between atoms: _23  and  _25
REMARK   12  A    between atoms: _25  and  _26
REMARK   13  A    between atoms: _25  and  _28
REMARK   14  A    between atoms: _28  and  _29
REMARK   15  A    between atoms: _32  and  _34
REMARK   16  A    between atoms: _34  and  _35
REMARK   17  A    between atoms: _34  and  _37
REMARK   18  A    between atoms: _37  and  _38
REMARK   19  A    between atoms: _43  and  _45
REMARK   20  A    between atoms: _45  and  _46
REMARK   21  A    between atoms: _49  and  _51
REMARK   22  A    between atoms: _51  and  _52
REMARK   23  A    between atoms: _51  and  _54
REMARK   24  A    between atoms: _54  and  _55
REMARK   25  A    between atoms: _58  and  _60
REMARK   26  A    between atoms: _60  and  _61
REMARK   27  A    between atoms: _60  and  _63
REMARK   28  A    between atoms: _63  and  _64
REMARK   29  A    between atoms: _67  and  _69
REMARK   30  A    between atoms: _69  and  _70
REMARK   31  A    between atoms: _69  and  _72
REMARK   32  A    between atoms: _72  and  _73
REMARK   33  A    between atoms: _76  and  _78
REMARK   34  A    between atoms: _78  and  _79
REMARK   35  A    between atoms: _78  and  _81
REMARK   36  A    between atoms: _81  and  _82
REMARK   37  A    between atoms: _85  and  _87
REMARK   38  A    between atoms: _87  and  _88
REMARK   39  A    between atoms: _91  and  _93
REMARK   40  A    between atoms: _93  and  _94
REMARK   41  A    between atoms: _93  and  _96
REMARK   42  A    between atoms: _96  and  _97
REMARK   43  A    between atoms: _97  and  _98
REMARK   44  A    between atoms: _103  and  _105
REMARK   45  A    between atoms: _105  and  _106
REMARK   46  A    between atoms: _105  and  _108
REMARK   47  A    between atoms: _108  and  _109
REMARK   48  A    between atoms: _112  and  _114
REMARK   49  A    between atoms: _114  and  _115
REMARK   50  A    between atoms: _118  and  _120
REMARK   51  A    between atoms: _120  and  _121
REMARK   52  A    between atoms: _123  and  _125
REMARK   53  A    between atoms: _125  and  _126
REMARK   54  A    between atoms: _125  and  _128
REMARK   55  A    between atoms: _128  and  _129
REMARK   56  A    between atoms: _129  and  _130
REMARK   57  A    between atoms: _130  and  _131
REMARK   58  A    between atoms: _140  and  _142
REMARK   59  A    between atoms: _142  and  _143
REMARK   60  A    between atoms: _145  and  _147
REMARK   61  A    between atoms: _147  and  _148
REMARK   62  A    between atoms: _147  and  _150
REMARK   63  A    between atoms: _150  and  _151
REMARK   64  A    between atoms: _151  and  _152
REMARK   65  A    between atoms: _152  and  _153
REMARK   66  A    between atoms: _162  and  _164
REMARK   67  A    between atoms: _164  and  _165
REMARK   68  A    between atoms: _164  and  _167
REMARK   69  A    between atoms: _167  and  _168
REMARK   70  A    between atoms: _173  and  _175
REMARK   71  A    between atoms: _175  and  _176
REMARK   72  A    between atoms: _178  and  _180
REMARK   73  A    between atoms: _180  and  _181
REMARK   74  A    between atoms: _180  and  _183
REMARK   75  A    between atoms: _183  and  _184
REMARK   76  A    between atoms: _184  and  _185
REMARK   77  A    between atoms: _185  and  _186
REMARK   78  A    between atoms: _195  and  _197
REMARK   79  A    between atoms: _197  and  _198
REMARK   80  A    between atoms: _200  and  _202
REMARK   81  A    between atoms: _202  and  _203
REMARK   82  A    between atoms: _202  and  _205
REMARK   83  A    between atoms: _205  and  _206
REMARK   84  A    between atoms: _216  and  _218
REMARK   85  A    between atoms: _218  and  _219
REMARK   86  A    between atoms: _222  and  _224
REMARK   87  A    between atoms: _224  and  _225
REMARK   88  A    between atoms: _228  and  _230
REMARK   89  A    between atoms: _230  and  _231
REMARK   90  A    between atoms: _230  and  _233
REMARK   91  A    between atoms: _233  and  _234
REMARK   92  A    between atoms: _237  and  _239
REMARK   93  A    between atoms: _239  and  _240
REMARK   94  A    between atoms: _239  and  _242
REMARK   95  A    between atoms: _242  and  _243
REMARK   96  A    between atoms: _243  and  _244
REMARK   97  A    between atoms: _249  and  _251
REMARK   98  A    between atoms: _251  and  _252
REMARK   99  A    between atoms: _251  and  _254
REMARK  100  A    between atoms: _254  and  _255
REMARK  101  A    between atoms: _258  and  _260
REMARK  102  A    between atoms: _260  and  _261
REMARK  103  A    between atoms: _260  and  _263
REMARK  104  A    between atoms: _263  and  _264
REMARK  105  A    between atoms: _267  and  _269
REMARK  106  A    between atoms: _269  and  _270
REMARK  107  A    between atoms: _269  and  _272
REMARK  108  A    between atoms: _272  and  _273
REMARK  109  A    between atoms: _276  and  _278
REMARK  110  A    between atoms: _278  and  _279
REMARK  111  A    between atoms: _278  and  _281
REMARK  112  A    between atoms: _281  and  _282
REMARK  113  A    between atoms: _284  and  _286
REMARK  114  A    between atoms: _286  and  _287
REMARK  115  A    between atoms: _286  and  _289
REMARK  116  A    between atoms: _292  and  _294
REMARK  117  A    between atoms: _294  and  _295
REMARK  118  A    between atoms: _294  and  _297
REMARK  119  A    between atoms: _297  and  _298
REMARK  120  A    between atoms: _298  and  _299
REMARK  121  A    between atoms: _299  and  _300
REMARK  122  A    between atoms: _300  and  _301
REMARK  123  A    between atoms: _305  and  _307
REMARK  124  A    between atoms: _307  and  _308
REMARK  125  A    between atoms: _307  and  _310
REMARK  126  A    between atoms: _310  and  _311
REMARK  127  A    between atoms: _322  and  _323
REMARK  128  A    between atoms: _328  and  _330
REMARK  129  A    between atoms: _330  and  _331
REMARK  130  A    between atoms: _330  and  _333
REMARK  131  A    between atoms: _333  and  _334
REMARK  132  A    between atoms: _339  and  _341
REMARK  133  A    between atoms: _341  and  _342
REMARK  134  A    between atoms: _341  and  _344
REMARK  135  A    between atoms: _344  and  _345
REMARK  136  A    between atoms: _348  and  _350
REMARK  137  A    between atoms: _350  and  _351
REMARK  138  A    between atoms: _350  and  _353
REMARK  139  A    between atoms: _356  and  _358
REMARK  140  A    between atoms: _358  and  _359
REMARK  141  A    between atoms: _361  and  _363
REMARK  142  A    between atoms: _363  and  _364
REMARK  143  A    between atoms: _363  and  _366
REMARK  144  A    between atoms: _366  and  _367
REMARK  145  A    between atoms: _367  and  _368
REMARK  146  A    between atoms: _368  and  _369
REMARK  147  A    between atoms: _369  and  _370
REMARK  148  A    between atoms: _374  and  _376
REMARK  149  A    between atoms: _376  and  _377
REMARK  150  A    between atoms: _376  and  _379
REMARK  151  A    between atoms: _379  and  _380
REMARK  152  A    between atoms: _383  and  _385
REMARK  153  A    between atoms: _385  and  _386
REMARK  154  A    between atoms: _389  and  _391
REMARK  155  A    between atoms: _391  and  _392
REMARK  156  A    between atoms: _394  and  _396
REMARK  157  A    between atoms: _396  and  _397
REMARK  158  A    between atoms: _396  and  _399
REMARK  159  A    between atoms: _399  and  _400
REMARK  160  A    between atoms: _403  and  _405
REMARK  161  A    between atoms: _405  and  _406
REMARK  162  A    between atoms: _405  and  _408
REMARK  163  A    between atoms: _408  and  _409
REMARK  164  A    between atoms: _412  and  _414
REMARK  165  A    between atoms: _414  and  _415
REMARK  166  A    between atoms: _418  and  _420
REMARK  167  A    between atoms: _420  and  _421
REMARK  168  A    between atoms: _420  and  _423
REMARK  169  A    between atoms: _423  and  _424
REMARK  170  A    between atoms: _424  and  _425
REMARK  171  A    between atoms: _428  and  _430
REMARK  172  A    between atoms: _430  and  _431
REMARK  173  A    between atoms: _430  and  _433
REMARK  174  A    between atoms: _436  and  _438
REMARK  175  A    between atoms: _438  and  _439
REMARK  176  A    between atoms: _438  and  _441
REMARK  177  A    between atoms: _441  and  _442
REMARK  178  A    between atoms: _445  and  _447
REMARK  179  A    between atoms: _447  and  _448
REMARK  180  A    between atoms: _450  and  _452
REMARK  181  A    between atoms: _452  and  _453
REMARK  182  A    between atoms: _452  and  _455
REMARK  183  A    between atoms: _458  and  _460
REMARK  184  A    between atoms: _460  and  _461
REMARK  185  A    between atoms: _463  and  _465
REMARK  186  A    between atoms: _465  and  _466
REMARK  187  A    between atoms: _465  and  _468
REMARK  188  A    between atoms: _468  and  _469
REMARK  189  A    between atoms: _472  and  _474
REMARK  190  A    between atoms: _474  and  _475
REMARK  191  A    between atoms: _474  and  _477
REMARK  192  A    between atoms: _477  and  _478
REMARK  193  A    between atoms: _483  and  _485
REMARK  194  A    between atoms: _485  and  _486
REMARK  195  A    between atoms: _485  and  _488
REMARK  196  A    between atoms: _491  and  _493
REMARK  197  A    between atoms: _493  and  _494
REMARK  198  A    between atoms: _493  and  _496
REMARK  199  A    between atoms: _496  and  _497
REMARK  200  A    between atoms: _497  and  _498
REMARK  201  A    between atoms: _503  and  _505
REMARK  202  A    between atoms: _505  and  _506
REMARK  203  A    between atoms: _510  and  _511
REMARK  204  A    between atoms: _516  and  _518
REMARK  205  A    between atoms: _518  and  _519
REMARK  206  A    between atoms: _518  and  _521
REMARK  207  A    between atoms: _521  and  _522
REMARK  208  A    between atoms: _522  and  _523
REMARK  209  A    between atoms: _526  and  _528
REMARK  210  A    between atoms: _528  and  _529
REMARK  211  A    between atoms: _528  and  _531
REMARK  212  A    between atoms: _534  and  _536
REMARK  213  A    between atoms: _536  and  _537
REMARK  214  A    between atoms: _536  and  _539
REMARK  215  A    between atoms: _539  and  _540
REMARK  216  A    between atoms: _544  and  _545
REMARK  217  A    between atoms: _550  and  _552
REMARK  218  A    between atoms: _552  and  _553
REMARK  219  A    between atoms: _552  and  _555
REMARK  220  A    between atoms: _555  and  _556
REMARK  221  A    between atoms: _559  and  _561
REMARK  222  A    between atoms: _561  and  _562
REMARK  223  A    between atoms: _565  and  _567
REMARK  224  A    between atoms: _567  and  _568
REMARK  225  A    between atoms: _567  and  _570
REMARK  226  A    between atoms: _570  and  _571
REMARK  227  A    between atoms: _574  and  _576
REMARK  228  A    between atoms: _576  and  _577
REMARK  229  A    between atoms: _576  and  _579
REMARK  230  A    between atoms: _579  and  _580
REMARK  231  A    between atoms: _582  and  _584
REMARK  232  A    between atoms: _584  and  _585
REMARK  233  A    between atoms: _587  and  _589
REMARK  234  A    between atoms: _589  and  _590
REMARK  235  A    between atoms: _589  and  _592
REMARK  236  A    between atoms: _592  and  _593
REMARK  237  A    between atoms: _596  and  _598
REMARK  238  A    between atoms: _598  and  _599
REMARK  239  A    between atoms: _598  and  _601
REMARK                            x       y       z     vdW  Elec       q    Type
REMARK                         _______ _______ _______ _____ _____    ______ ____
ROOT
ATOM      1  O   HOH     1      -8.156   0.372   6.487  0.00  0.00    +0.000 OA
ENDROOT
TORSDOF 0
REMARK  Name = ../refined-set-2016/3rux/3rux_pocket.pdb
REMARK  239 active torsions:
REMARK  status: ('A' for Active; 'I' for Inactive)
REMARK    1  A    between atoms: _1  and  _3
REMARK    2  A    between atoms: _3  and  _4
REMARK    3  A    between atoms: _3  and  _6
REMARK    4  A    between atoms: _6  and  _7
REMARK    5  A    between atoms: _10  and  _12
REMARK    6  A    between atoms: _12  and  _13
REMARK    7  A    between atoms: _15  and  _17
REMARK    8  A    between atoms: _17  and  _18
REMARK    9  A    between atoms: _17  and  _20
REMARK   10  A    between atoms: _20  and  _21
REMARK   11  A    between atoms: _23  and  _25
REMARK   12  A    between atoms: _25  and  _26
REMARK   13  A    between atoms: _25  and  _28
REMARK   14  A    between atoms: _28  and  _29
REMARK   15  A    between atoms: _32  and  _34
REMARK   16  A    between atoms: _34  and  _35
REMARK   17  A    between atoms: _34  and  _37
REMARK   18  A    between atoms: _37  and  _38
REMARK   19  A    between atoms: _43  and  _45
REMARK   20  A    between atoms: _45  and  _46
REMARK   21  A    between atoms: _49  and  _51
REMARK   22  A    between atoms: _51  and  _52
REMARK   23  A    between atoms: _51  and  _54
REMARK   24  A    between atoms: _54  and  _55
REMARK   25  A    between atoms: _58  and  _60
REMARK   26  A    between atoms: _60  and  _61
REMARK   27  A    between atoms: _60  and  _63
REMARK   28  A    between atoms: _63  and  _64
REMARK   29  A    between atoms: _67  and  _69
REMARK   30  A    between atoms: _69  and  _70
REMARK   31  A    between atoms: _69  and  _72
REMARK   32  A    between atoms: _72  and  _73
REMARK   33  A    between atoms: _76  and  _78
REMARK   34  A    between atoms: _78  and  _79
REMARK   35  A    between atoms: _78  and  _81
REMARK   36  A    between atoms: _81  and  _82
REMARK   37  A    between atoms: _85  and  _87
REMARK   38  A    between atoms: _87  and  _88
REMARK   39  A    between atoms: _91  and  _93
REMARK   40  A    between atoms: _93  and  _94
REMARK   41  A    between atoms: _93  and  _96
REMARK   42  A    between atoms: _96  and  _97
REMARK   43  A    between atoms: _97  and  _98
REMARK   44  A    between atoms: _103  and  _105
REMARK   45  A    between atoms: _105  and  _106
REMARK   46  A    between atoms: _105  and  _108
REMARK   47  A    between atoms: _108  and  _109
REMARK   48  A    between atoms: _112  and  _114
REMARK   49  A    between atoms: _114  and  _115
REMARK   50  A    between atoms: _118  and  _120
REMARK   51  A    between atoms: _120  and  _121
REMARK   52  A    between atoms: _123  and  _125
REMARK   53  A    between atoms: _125  and  _126
REMARK   54  A    between atoms: _125  and  _128
REMARK   55  A    between atoms: _128  and  _129
REMARK   56  A    between atoms: _129  and  _130
REMARK   57  A    between atoms: _130  and  _131
REMARK   58  A    between atoms: _140  and  _142
REMARK   59  A    between atoms: _142  and  _143
REMARK   60  A    between atoms: _145  and  _147
REMARK   61  A    between atoms: _147  and  _148
REMARK   62  A    between atoms: _147  and  _150
REMARK   63  A    between atoms: _150  and  _151
REMARK   64  A    between atoms: _151  and  _152
REMARK   65  A    between atoms: _152  and  _153
REMARK   66  A    between atoms: _162  and  _164
REMARK   67  A    between atoms: _164  and  _165
REMARK   68  A    between atoms: _164  and  _167
REMARK   69  A    between atoms: _167  and  _168
REMARK   70  A    between atoms: _173  and  _175
REMARK   71  A    between atoms: _175  and  _176
REMARK   72  A    between atoms: _178  and  _180
REMARK   73  A    between atoms: _180  and  _181
REMARK   74  A    between atoms: _180  and  _183
REMARK   75  A    between atoms: _183  and  _184
REMARK   76  A    between atoms: _184  and  _185
REMARK   77  A    between atoms: _185  and  _186
REMARK   78  A    between atoms: _195  and  _197
REMARK   79  A    between atoms: _197  and  _198
REMARK   80  A    between atoms: _200  and  _202
REMARK   81  A    between atoms: _202  and  _203
REMARK   82  A    between atoms: _202  and  _205
REMARK   83  A    between atoms: _205  and  _206
REMARK   84  A    between atoms: _216  and  _218
REMARK   85  A    between atoms: _218  and  _219
REMARK   86  A    between atoms: _222  and  _224
REMARK   87  A    between atoms: _224  and  _225
REMARK   88  A    between atoms: _228  and  _230
REMARK   89  A    between atoms: _230  and  _231
REMARK   90  A    between atoms: _230  and  _233
REMARK   91  A    between atoms: _233  and  _234
REMARK   92  A    between atoms: _237  and  _239
REMARK   93  A    between atoms: _239  and  _240
REMARK   94  A    between atoms: _239  and  _242
REMARK   95  A    between atoms: _242  and  _243
REMARK   96  A    between atoms: _243  and  _244
REMARK   97  A    between atoms: _249  and  _251
REMARK   98  A    between atoms: _251  and  _252
REMARK   99  A    between atoms: _251  and  _254
REMARK  100  A    between atoms: _254  and  _255
REMARK  101  A    between atoms: _258  and  _260
REMARK  102  A    between atoms: _260  and  _261
REMARK  103  A    between atoms: _260  and  _263
REMARK  104  A    between atoms: _263  and  _264
REMARK  105  A    between atoms: _267  and  _269
REMARK  106  A    between atoms: _269  and  _270
REMARK  107  A    between atoms: _269  and  _272
REMARK  108  A    between atoms: _272  and  _273
REMARK  109  A    between atoms: _276  and  _278
REMARK  110  A    between atoms: _278  and  _279
REMARK  111  A    between atoms: _278  and  _281
REMARK  112  A    between atoms: _281  and  _282
REMARK  113  A    between atoms: _284  and  _286
REMARK  114  A    between atoms: _286  and  _287
REMARK  115  A    between atoms: _286  and  _289
REMARK  116  A    between atoms: _292  and  _294
REMARK  117  A    between atoms: _294  and  _295
REMARK  118  A    between atoms: _294  and  _297
REMARK  119  A    between atoms: _297  and  _298
REMARK  120  A    between atoms: _298  and  _299
REMARK  121  A    between atoms: _299  and  _300
REMARK  122  A    between atoms: _300  and  _301
REMARK  123  A    between atoms: _305  and  _307
REMARK  124  A    between atoms: _307  and  _308
REMARK  125  A    between atoms: _307  and  _310
REMARK  126  A    between atoms: _310  and  _311
REMARK  127  A    between atoms: _322  and  _323
REMARK  128  A    between atoms: _328  and  _330
REMARK  129  A    between atoms: _330  and  _331
REMARK  130  A    between atoms: _330  and  _333
REMARK  131  A    between atoms: _333  and  _334
REMARK  132  A    between atoms: _339  and  _341
REMARK  133  A    between atoms: _341  and  _342
REMARK  134  A    between atoms: _341  and  _344
REMARK  135  A    between atoms: _344  and  _345
REMARK  136  A    between atoms: _348  and  _350
REMARK  137  A    between atoms: _350  and  _351
REMARK  138  A    between atoms: _350  and  _353
REMARK  139  A    between atoms: _356  and  _358
REMARK  140  A    between atoms: _358  and  _359
REMARK  141  A    between atoms: _361  and  _363
REMARK  142  A    between atoms: _363  and  _364
REMARK  143  A    between atoms: _363  and  _366
REMARK  144  A    between atoms: _366  and  _367
REMARK  145  A    between atoms: _367  and  _368
REMARK  146  A    between atoms: _368  and  _369
REMARK  147  A    between atoms: _369  and  _370
REMARK  148  A    between atoms: _374  and  _376
REMARK  149  A    between atoms: _376  and  _377
REMARK  150  A    between atoms: _376  and  _379
REMARK  151  A    between atoms: _379  and  _380
REMARK  152  A    between atoms: _383  and  _385
REMARK  153  A    between atoms: _385  and  _386
REMARK  154  A    between atoms: _389  and  _391
REMARK  155  A    between atoms: _391  and  _392
REMARK  156  A    between atoms: _394  and  _396
REMARK  157  A    between atoms: _396  and  _397
REMARK  158  A    between atoms: _396  and  _399
REMARK  159  A    between atoms: _399  and  _400
REMARK  160  A    between atoms: _403  and  _405
REMARK  161  A    between atoms: _405  and  _406
REMARK  162  A    between atoms: _405  and  _408
REMARK  163  A    between atoms: _408  and  _409
REMARK  164  A    between atoms: _412  and  _414
REMARK  165  A    between atoms: _414  and  _415
REMARK  166  A    between atoms: _418  and  _420
REMARK  167  A    between atoms: _420  and  _421
REMARK  168  A    between atoms: _420  and  _423
REMARK  169  A    between atoms: _423  and  _424
REMARK  170  A    between atoms: _424  and  _425
REMARK  171  A    between atoms: _428  and  _430
REMARK  172  A    between atoms: _430  and  _431
REMARK  173  A    between atoms: _430  and  _433
REMARK  174  A    between atoms: _436  and  _438
REMARK  175  A    between atoms: _438  and  _439
REMARK  176  A    between atoms: _438  and  _441
REMARK  177  A    between atoms: _441  and  _442
REMARK  178  A    between atoms: _445  and  _447
REMARK  179  A    between atoms: _447  and  _448
REMARK  180  A    between atoms: _450  and  _452
REMARK  181  A    between atoms: _452  and  _453
REMARK  182  A    between atoms: _452  and  _455
REMARK  183  A    between atoms: _458  and  _460
REMARK  184  A    between atoms: _460  and  _461
REMARK  185  A    between atoms: _463  and  _465
REMARK  186  A    between atoms: _465  and  _466
REMARK  187  A    between atoms: _465  and  _468
REMARK  188  A    between atoms: _468  and  _469
REMARK  189  A    between atoms: _472  and  _474
REMARK  190  A    between atoms: _474  and  _475
REMARK  191  A    between atoms: _474  and  _477
REMARK  192  A    between atoms: _477  and  _478
REMARK  193  A    between atoms: _483  and  _485
REMARK  194  A    between atoms: _485  and  _486
REMARK  195  A    between atoms: _485  and  _488
REMARK  196  A    between atoms: _491  and  _493
REMARK  197  A    between atoms: _493  and  _494
REMARK  198  A    between atoms: _493  and  _496
REMARK  199  A    between atoms: _496  and  _497
REMARK  200  A    between atoms: _497  and  _498
REMARK  201  A    between atoms: _503  and  _505
REMARK  202  A    between atoms: _505  and  _506
REMARK  203  A    between atoms: _510  and  _511
REMARK  204  A    between atoms: _516  and  _518
REMARK  205  A    between atoms: _518  and  _519
REMARK  206  A    between atoms: _518  and  _521
REMARK  207  A    between atoms: _521  and  _522
REMARK  208  A    between atoms: _522  and  _523
REMARK  209  A    between atoms: _526  and  _528
REMARK  210  A    between atoms: _528  and  _529
REMARK  211  A    between atoms: _528  and  _531
REMARK  212  A    between atoms: _534  and  _536
REMARK  213  A    between atoms: _536  and  _537
REMARK  214  A    between atoms: _536  and  _539
REMARK  215  A    between atoms: _539  and  _540
REMARK  216  A    between atoms: _544  and  _545
REMARK  217  A    between atoms: _550  and  _552
REMARK  218  A    between atoms: _552  and  _553
REMARK  219  A    between atoms: _552  and  _555
REMARK  220  A    between atoms: _555  and  _556
REMARK  221  A    between atoms: _559  and  _561
REMARK  222  A    between atoms: _561  and  _562
REMARK  223  A    between atoms: _565  and  _567
REMARK  224  A    between atoms: _567  and  _568
REMARK  225  A    between atoms: _567  and  _570
REMARK  226  A    between atoms: _570  and  _571
REMARK  227  A    between atoms: _574  and  _576
REMARK  228  A    between atoms: _576  and  _577
REMARK  229  A    between atoms: _576  and  _579
REMARK  230  A    between atoms: _579  and  _580
REMARK  231  A    between atoms: _582  and  _584
REMARK  232  A    between atoms: _584  and  _585
REMARK  233  A    between atoms: _587  and  _589
REMARK  234  A    between atoms: _589  and  _590
REMARK  235  A    between atoms: _589  and  _592
REMARK  236  A    between atoms: _592  and  _593
REMARK  237  A    between atoms: _596  and  _598
REMARK  238  A    between atoms: _598  and  _599
REMARK  239  A    between atoms: _598  and  _601
REMARK                            x       y       z     vdW  Elec       q    Type
REMARK                         _______ _______ _______ _____ _____    ______ ____
ROOT
ATOM      1  O   HOH     1     -10.306   0.301   5.855  0.00  0.00    +0.000 OA
ENDROOT
TORSDOF 0
REMARK  Name = ../refined-set-2016/3rux/3rux_pocket.pdb
REMARK  239 active torsions:
REMARK  status: ('A' for Active; 'I' for Inactive)
REMARK    1  A    between atoms: _1  and  _3
REMARK    2  A    between atoms: _3  and  _4
REMARK    3  A    between atoms: _3  and  _6
REMARK    4  A    between atoms: _6  and  _7
REMARK    5  A    between atoms: _10  and  _12
REMARK    6  A    between atoms: _12  and  _13
REMARK    7  A    between atoms: _15  and  _17
REMARK    8  A    between atoms: _17  and  _18
REMARK    9  A    between atoms: _17  and  _20
REMARK   10  A    between atoms: _20  and  _21
REMARK   11  A    between atoms: _23  and  _25
REMARK   12  A    between atoms: _25  and  _26
REMARK   13  A    between atoms: _25  and  _28
REMARK   14  A    between atoms: _28  and  _29
REMARK   15  A    between atoms: _32  and  _34
REMARK   16  A    between atoms: _34  and  _35
REMARK   17  A    between atoms: _34  and  _37
REMARK   18  A    between atoms: _37  and  _38
REMARK   19  A    between atoms: _43  and  _45
REMARK   20  A    between atoms: _45  and  _46
REMARK   21  A    between atoms: _49  and  _51
REMARK   22  A    between atoms: _51  and  _52
REMARK   23  A    between atoms: _51  and  _54
REMARK   24  A    between atoms: _54  and  _55
REMARK   25  A    between atoms: _58  and  _60
REMARK   26  A    between atoms: _60  and  _61
REMARK   27  A    between atoms: _60  and  _63
REMARK   28  A    between atoms: _63  and  _64
REMARK   29  A    between atoms: _67  and  _69
REMARK   30  A    between atoms: _69  and  _70
REMARK   31  A    between atoms: _69  and  _72
REMARK   32  A    between atoms: _72  and  _73
REMARK   33  A    between atoms: _76  and  _78
REMARK   34  A    between atoms: _78  and  _79
REMARK   35  A    between atoms: _78  and  _81
REMARK   36  A    between atoms: _81  and  _82
REMARK   37  A    between atoms: _85  and  _87
REMARK   38  A    between atoms: _87  and  _88
REMARK   39  A    between atoms: _91  and  _93
REMARK   40  A    between atoms: _93  and  _94
REMARK   41  A    between atoms: _93  and  _96
REMARK   42  A    between atoms: _96  and  _97
REMARK   43  A    between atoms: _97  and  _98
REMARK   44  A    between atoms: _103  and  _105
REMARK   45  A    between atoms: _105  and  _106
REMARK   46  A    between atoms: _105  and  _108
REMARK   47  A    between atoms: _108  and  _109
REMARK   48  A    between atoms: _112  and  _114
REMARK   49  A    between atoms: _114  and  _115
REMARK   50  A    between atoms: _118  and  _120
REMARK   51  A    between atoms: _120  and  _121
REMARK   52  A    between atoms: _123  and  _125
REMARK   53  A    between atoms: _125  and  _126
REMARK   54  A    between atoms: _125  and  _128
REMARK   55  A    between atoms: _128  and  _129
REMARK   56  A    between atoms: _129  and  _130
REMARK   57  A    between atoms: _130  and  _131
REMARK   58  A    between atoms: _140  and  _142
REMARK   59  A    between atoms: _142  and  _143
REMARK   60  A    between atoms: _145  and  _147
REMARK   61  A    between atoms: _147  and  _148
REMARK   62  A    between atoms: _147  and  _150
REMARK   63  A    between atoms: _150  and  _151
REMARK   64  A    between atoms: _151  and  _152
REMARK   65  A    between atoms: _152  and  _153
REMARK   66  A    between atoms: _162  and  _164
REMARK   67  A    between atoms: _164  and  _165
REMARK   68  A    between atoms: _164  and  _167
REMARK   69  A    between atoms: _167  and  _168
REMARK   70  A    between atoms: _173  and  _175
REMARK   71  A    between atoms: _175  and  _176
REMARK   72  A    between atoms: _178  and  _180
REMARK   73  A    between atoms: _180  and  _181
REMARK   74  A    between atoms: _180  and  _183
REMARK   75  A    between atoms: _183  and  _184
REMARK   76  A    between atoms: _184  and  _185
REMARK   77  A    between atoms: _185  and  _186
REMARK   78  A    between atoms: _195  and  _197
REMARK   79  A    between atoms: _197  and  _198
REMARK   80  A    between atoms: _200  and  _202
REMARK   81  A    between atoms: _202  and  _203
REMARK   82  A    between atoms: _202  and  _205
REMARK   83  A    between atoms: _205  and  _206
REMARK   84  A    between atoms: _216  and  _218
REMARK   85  A    between atoms: _218  and  _219
REMARK   86  A    between atoms: _222  and  _224
REMARK   87  A    between atoms: _224  and  _225
REMARK   88  A    between atoms: _228  and  _230
REMARK   89  A    between atoms: _230  and  _231
REMARK   90  A    between atoms: _230  and  _233
REMARK   91  A    between atoms: _233  and  _234
REMARK   92  A    between atoms: _237  and  _239
REMARK   93  A    between atoms: _239  and  _240
REMARK   94  A    between atoms: _239  and  _242
REMARK   95  A    between atoms: _242  and  _243
REMARK   96  A    between atoms: _243  and  _244
REMARK   97  A    between atoms: _249  and  _251
REMARK   98  A    between atoms: _251  and  _252
REMARK   99  A    between atoms: _251  and  _254
REMARK  100  A    between atoms: _254  and  _255
REMARK  101  A    between atoms: _258  and  _260
REMARK  102  A    between atoms: _260  and  _261
REMARK  103  A    between atoms: _260  and  _263
REMARK  104  A    between atoms: _263  and  _264
REMARK  105  A    between atoms: _267  and  _269
REMARK  106  A    between atoms: _269  and  _270
REMARK  107  A    between atoms: _269  and  _272
REMARK  108  A    between atoms: _272  and  _273
REMARK  109  A    between atoms: _276  and  _278
REMARK  110  A    between atoms: _278  and  _279
REMARK  111  A    between atoms: _278  and  _281
REMARK  112  A    between atoms: _281  and  _282
REMARK  113  A    between atoms: _284  and  _286
REMARK  114  A    between atoms: _286  and  _287
REMARK  115  A    between atoms: _286  and  _289
REMARK  116  A    between atoms: _292  and  _294
REMARK  117  A    between atoms: _294  and  _295
REMARK  118  A    between atoms: _294  and  _297
REMARK  119  A    between atoms: _297  and  _298
REMARK  120  A    between atoms: _298  and  _299
REMARK  121  A    between atoms: _299  and  _300
REMARK  122  A    between atoms: _300  and  _301
REMARK  123  A    between atoms: _305  and  _307
REMARK  124  A    between atoms: _307  and  _308
REMARK  125  A    between atoms: _307  and  _310
REMARK  126  A    between atoms: _310  and  _311
REMARK  127  A    between atoms: _322  and  _323
REMARK  128  A    between atoms: _328  and  _330
REMARK  129  A    between atoms: _330  and  _331
REMARK  130  A    between atoms: _330  and  _333
REMARK  131  A    between atoms: _333  and  _334
REMARK  132  A    between atoms: _339  and  _341
REMARK  133  A    between atoms: _341  and  _342
REMARK  134  A    between atoms: _341  and  _344
REMARK  135  A    between atoms: _344  and  _345
REMARK  136  A    between atoms: _348  and  _350
REMARK  137  A    between atoms: _350  and  _351
REMARK  138  A    between atoms: _350  and  _353
REMARK  139  A    between atoms: _356  and  _358
REMARK  140  A    between atoms: _358  and  _359
REMARK  141  A    between atoms: _361  and  _363
REMARK  142  A    between atoms: _363  and  _364
REMARK  143  A    between atoms: _363  and  _366
REMARK  144  A    between atoms: _366  and  _367
REMARK  145  A    between atoms: _367  and  _368
REMARK  146  A    between atoms: _368  and  _369
REMARK  147  A    between atoms: _369  and  _370
REMARK  148  A    between atoms: _374  and  _376
REMARK  149  A    between atoms: _376  and  _377
REMARK  150  A    between atoms: _376  and  _379
REMARK  151  A    between atoms: _379  and  _380
REMARK  152  A    between atoms: _383  and  _385
REMARK  153  A    between atoms: _385  and  _386
REMARK  154  A    between atoms: _389  and  _391
REMARK  155  A    between atoms: _391  and  _392
REMARK  156  A    between atoms: _394  and  _396
REMARK  157  A    between atoms: _396  and  _397
REMARK  158  A    between atoms: _396  and  _399
REMARK  159  A    between atoms: _399  and  _400
REMARK  160  A    between atoms: _403  and  _405
REMARK  161  A    between atoms: _405  and  _406
REMARK  162  A    between atoms: _405  and  _408
REMARK  163  A    between atoms: _408  and  _409
REMARK  164  A    between atoms: _412  and  _414
REMARK  165  A    between atoms: _414  and  _415
REMARK  166  A    between atoms: _418  and  _420
REMARK  167  A    between atoms: _420  and  _421
REMARK  168  A    between atoms: _420  and  _423
REMARK  169  A    between atoms: _423  and  _424
REMARK  170  A    between atoms: _424  and  _425
REMARK  171  A    between atoms: _428  and  _430
REMARK  172  A    between atoms: _430  and  _431
REMARK  173  A    between atoms: _430  and  _433
REMARK  174  A    between atoms: _436  and  _438
REMARK  175  A    between atoms: _438  and  _439
REMARK  176  A    between atoms: _438  and  _441
REMARK  177  A    between atoms: _441  and  _442
REMARK  178  A    between atoms: _445  and  _447
REMARK  179  A    between atoms: _447  and  _448
REMARK  180  A    between atoms: _450  and  _452
REMARK  181  A    between atoms: _452  and  _453
REMARK  182  A    between atoms: _452  and  _455
REMARK  183  A    between atoms: _458  and  _460
REMARK  184  A    between atoms: _460  and  _461
REMARK  185  A    between atoms: _463  and  _465
REMARK  186  A    between atoms: _465  and  _466
REMARK  187  A    between atoms: _465  and  _468
REMARK  188  A    between atoms: _468  and  _469
REMARK  189  A    between atoms: _472  and  _474
REMARK  190  A    between atoms: _474  and  _475
REMARK  191  A    between atoms: _474  and  _477
REMARK  192  A    between atoms: _477  and  _478
REMARK  193  A    between atoms: _483  and  _485
REMARK  194  A    between atoms: _485  and  _486
REMARK  195  A    between atoms: _485  and  _488
REMARK  196  A    between atoms: _491  and  _493
REMARK  197  A    between atoms: _493  and  _494
REMARK  198  A    between atoms: _493  and  _496
REMARK  199  A    between atoms: _496  and  _497
REMARK  200  A    between atoms: _497  and  _498
REMARK  201  A    between atoms: _503  and  _505
REMARK  202  A    between atoms: _505  and  _506
REMARK  203  A    between atoms: _510  and  _511
REMARK  204  A    between atoms: _516  and  _518
REMARK  205  A    between atoms: _518  and  _519
REMARK  206  A    between atoms: _518  and  _521
REMARK  207  A    between atoms: _521  and  _522
REMARK  208  A    between atoms: _522  and  _523
REMARK  209  A    between atoms: _526  and  _528
REMARK  210  A    between atoms: _528  and  _529
REMARK  211  A    between atoms: _528  and  _531
REMARK  212  A    between atoms: _534  and  _536
REMARK  213  A    between atoms: _536  and  _537
REMARK  214  A    between atoms: _536  and  _539
REMARK  215  A    between atoms: _539  and  _540
REMARK  216  A    between atoms: _544  and  _545
REMARK  217  A    between atoms: _550  and  _552
REMARK  218  A    between atoms: _552  and  _553
REMARK  219  A    between atoms: _552  and  _555
REMARK  220  A    between atoms: _555  and  _556
REMARK  221  A    between atoms: _559  and  _561
REMARK  222  A    between atoms: _561  and  _562
REMARK  223  A    between atoms: _565  and  _567
REMARK  224  A    between atoms: _567  and  _568
REMARK  225  A    between atoms: _567  and  _570
REMARK  226  A    between atoms: _570  and  _571
REMARK  227  A    between atoms: _574  and  _576
REMARK  228  A    between atoms: _576  and  _577
REMARK  229  A    between atoms: _576  and  _579
REMARK  230  A    between atoms: _579  and  _580
REMARK  231  A    between atoms: _582  and  _584
REMARK  232  A    between atoms: _584  and  _585
REMARK  233  A    between atoms: _587  and  _589
REMARK  234  A    between atoms: _589  and  _590
REMARK  235  A    between atoms: _589  and  _592
REMARK  236  A    between atoms: _592  and  _593
REMARK  237  A    between atoms: _596  and  _598
REMARK  238  A    between atoms: _598  and  _599
REMARK  239  A    between atoms: _598  and  _601
REMARK                            x       y       z     vdW  Elec       q    Type
REMARK                         _______ _______ _______ _____ _____    ______ ____
ROOT
ATOM      1  O   HOH     1      -8.249  -5.034   3.276  0.00  0.00    +0.000 OA
ENDROOT
TORSDOF 0
REMARK  Name = ../refined-set-2016/3rux/3rux_pocket.pdb
REMARK  239 active torsions:
REMARK  status: ('A' for Active; 'I' for Inactive)
REMARK    1  A    between atoms: _1  and  _3
REMARK    2  A    between atoms: _3  and  _4
REMARK    3  A    between atoms: _3  and  _6
REMARK    4  A    between atoms: _6  and  _7
REMARK    5  A    between atoms: _10  and  _12
REMARK    6  A    between atoms: _12  and  _13
REMARK    7  A    between atoms: _15  and  _17
REMARK    8  A    between atoms: _17  and  _18
REMARK    9  A    between atoms: _17  and  _20
REMARK   10  A    between atoms: _20  and  _21
REMARK   11  A    between atoms: _23  and  _25
REMARK   12  A    between atoms: _25  and  _26
REMARK   13  A    between atoms: _25  and  _28
REMARK   14  A    between atoms: _28  and  _29
REMARK   15  A    between atoms: _32  and  _34
REMARK   16  A    between atoms: _34  and  _35
REMARK   17  A    between atoms: _34  and  _37
REMARK   18  A    between atoms: _37  and  _38
REMARK   19  A    between atoms: _43  and  _45
REMARK   20  A    between atoms: _45  and  _46
REMARK   21  A    between atoms: _49  and  _51
REMARK   22  A    between atoms: _51  and  _52
REMARK   23  A    between atoms: _51  and  _54
REMARK   24  A    between atoms: _54  and  _55
REMARK   25  A    between atoms: _58  and  _60
REMARK   26  A    between atoms: _60  and  _61
REMARK   27  A    between atoms: _60  and  _63
REMARK   28  A    between atoms: _63  and  _64
REMARK   29  A    between atoms: _67  and  _69
REMARK   30  A    between atoms: _69  and  _70
REMARK   31  A    between atoms: _69  and  _72
REMARK   32  A    between atoms: _72  and  _73
REMARK   33  A    between atoms: _76  and  _78
REMARK   34  A    between atoms: _78  and  _79
REMARK   35  A    between atoms: _78  and  _81
REMARK   36  A    between atoms: _81  and  _82
REMARK   37  A    between atoms: _85  and  _87
REMARK   38  A    between atoms: _87  and  _88
REMARK   39  A    between atoms: _91  and  _93
REMARK   40  A    between atoms: _93  and  _94
REMARK   41  A    between atoms: _93  and  _96
REMARK   42  A    between atoms: _96  and  _97
REMARK   43  A    between atoms: _97  and  _98
REMARK   44  A    between atoms: _103  and  _105
REMARK   45  A    between atoms: _105  and  _106
REMARK   46  A    between atoms: _105  and  _108
REMARK   47  A    between atoms: _108  and  _109
REMARK   48  A    between atoms: _112  and  _114
REMARK   49  A    between atoms: _114  and  _115
REMARK   50  A    between atoms: _118  and  _120
REMARK   51  A    between atoms: _120  and  _121
REMARK   52  A    between atoms: _123  and  _125
REMARK   53  A    between atoms: _125  and  _126
REMARK   54  A    between atoms: _125  and  _128
REMARK   55  A    between atoms: _128  and  _129
REMARK   56  A    between atoms: _129  and  _130
REMARK   57  A    between atoms: _130  and  _131
REMARK   58  A    between atoms: _140  and  _142
REMARK   59  A    between atoms: _142  and  _143
REMARK   60  A    between atoms: _145  and  _147
REMARK   61  A    between atoms: _147  and  _148
REMARK   62  A    between atoms: _147  and  _150
REMARK   63  A    between atoms: _150  and  _151
REMARK   64  A    between atoms: _151  and  _152
REMARK   65  A    between atoms: _152  and  _153
REMARK   66  A    between atoms: _162  and  _164
REMARK   67  A    between atoms: _164  and  _165
REMARK   68  A    between atoms: _164  and  _167
REMARK   69  A    between atoms: _167  and  _168
REMARK   70  A    between atoms: _173  and  _175
REMARK   71  A    between atoms: _175  and  _176
REMARK   72  A    between atoms: _178  and  _180
REMARK   73  A    between atoms: _180  and  _181
REMARK   74  A    between atoms: _180  and  _183
REMARK   75  A    between atoms: _183  and  _184
REMARK   76  A    between atoms: _184  and  _185
REMARK   77  A    between atoms: _185  and  _186
REMARK   78  A    between atoms: _195  and  _197
REMARK   79  A    between atoms: _197  and  _198
REMARK   80  A    between atoms: _200  and  _202
REMARK   81  A    between atoms: _202  and  _203
REMARK   82  A    between atoms: _202  and  _205
REMARK   83  A    between atoms: _205  and  _206
REMARK   84  A    between atoms: _216  and  _218
REMARK   85  A    between atoms: _218  and  _219
REMARK   86  A    between atoms: _222  and  _224
REMARK   87  A    between atoms: _224  and  _225
REMARK   88  A    between atoms: _228  and  _230
REMARK   89  A    between atoms: _230  and  _231
REMARK   90  A    between atoms: _230  and  _233
REMARK   91  A    between atoms: _233  and  _234
REMARK   92  A    between atoms: _237  and  _239
REMARK   93  A    between atoms: _239  and  _240
REMARK   94  A    between atoms: _239  and  _242
REMARK   95  A    between atoms: _242  and  _243
REMARK   96  A    between atoms: _243  and  _244
REMARK   97  A    between atoms: _249  and  _251
REMARK   98  A    between atoms: _251  and  _252
REMARK   99  A    between atoms: _251  and  _254
REMARK  100  A    between atoms: _254  and  _255
REMARK  101  A    between atoms: _258  and  _260
REMARK  102  A    between atoms: _260  and  _261
REMARK  103  A    between atoms: _260  and  _263
REMARK  104  A    between atoms: _263  and  _264
REMARK  105  A    between atoms: _267  and  _269
REMARK  106  A    between atoms: _269  and  _270
REMARK  107  A    between atoms: _269  and  _272
REMARK  108  A    between atoms: _272  and  _273
REMARK  109  A    between atoms: _276  and  _278
REMARK  110  A    between atoms: _278  and  _279
REMARK  111  A    between atoms: _278  and  _281
REMARK  112  A    between atoms: _281  and  _282
REMARK  113  A    between atoms: _284  and  _286
REMARK  114  A    between atoms: _286  and  _287
REMARK  115  A    between atoms: _286  and  _289
REMARK  116  A    between atoms: _292  and  _294
REMARK  117  A    between atoms: _294  and  _295
REMARK  118  A    between atoms: _294  and  _297
REMARK  119  A    between atoms: _297  and  _298
REMARK  120  A    between atoms: _298  and  _299
REMARK  121  A    between atoms: _299  and  _300
REMARK  122  A    between atoms: _300  and  _301
REMARK  123  A    between atoms: _305  and  _307
REMARK  124  A    between atoms: _307  and  _308
REMARK  125  A    between atoms: _307  and  _310
REMARK  126  A    between atoms: _310  and  _311
REMARK  127  A    between atoms: _322  and  _323
REMARK  128  A    between atoms: _328  and  _330
REMARK  129  A    between atoms: _330  and  _331
REMARK  130  A    between atoms: _330  and  _333
REMARK  131  A    between atoms: _333  and  _334
REMARK  132  A    between atoms: _339  and  _341
REMARK  133  A    between atoms: _341  and  _342
REMARK  134  A    between atoms: _341  and  _344
REMARK  135  A    between atoms: _344  and  _345
REMARK  136  A    between atoms: _348  and  _350
REMARK  137  A    between atoms: _350  and  _351
REMARK  138  A    between atoms: _350  and  _353
REMARK  139  A    between atoms: _356  and  _358
REMARK  140  A    between atoms: _358  and  _359
REMARK  141  A    between atoms: _361  and  _363
REMARK  142  A    between atoms: _363  and  _364
REMARK  143  A    between atoms: _363  and  _366
REMARK  144  A    between atoms: _366  and  _367
REMARK  145  A    between atoms: _367  and  _368
REMARK  146  A    between atoms: _368  and  _369
REMARK  147  A    between atoms: _369  and  _370
REMARK  148  A    between atoms: _374  and  _376
REMARK  149  A    between atoms: _376  and  _377
REMARK  150  A    between atoms: _376  and  _379
REMARK  151  A    between atoms: _379  and  _380
REMARK  152  A    between atoms: _383  and  _385
REMARK  153  A    between atoms: _385  and  _386
REMARK  154  A    between atoms: _389  and  _391
REMARK  155  A    between atoms: _391  and  _392
REMARK  156  A    between atoms: _394  and  _396
REMARK  157  A    between atoms: _396  and  _397
REMARK  158  A    between atoms: _396  and  _399
REMARK  159  A    between atoms: _399  and  _400
REMARK  160  A    between atoms: _403  and  _405
REMARK  161  A    between atoms: _405  and  _406
REMARK  162  A    between atoms: _405  and  _408
REMARK  163  A    between atoms: _408  and  _409
REMARK  164  A    between atoms: _412  and  _414
REMARK  165  A    between atoms: _414  and  _415
REMARK  166  A    between atoms: _418  and  _420
REMARK  167  A    between atoms: _420  and  _421
REMARK  168  A    between atoms: _420  and  _423
REMARK  169  A    between atoms: _423  and  _424
REMARK  170  A    between atoms: _424  and  _425
REMARK  171  A    between atoms: _428  and  _430
REMARK  172  A    between atoms: _430  and  _431
REMARK  173  A    between atoms: _430  and  _433
REMARK  174  A    between atoms: _436  and  _438
REMARK  175  A    between atoms: _438  and  _439
REMARK  176  A    between atoms: _438  and  _441
REMARK  177  A    between atoms: _441  and  _442
REMARK  178  A    between atoms: _445  and  _447
REMARK  179  A    between atoms: _447  and  _448
REMARK  180  A    between atoms: _450  and  _452
REMARK  181  A    between atoms: _452  and  _453
REMARK  182  A    between atoms: _452  and  _455
REMARK  183  A    between atoms: _458  and  _460
REMARK  184  A    between atoms: _460  and  _461
REMARK  185  A    between atoms: _463  and  _465
REMARK  186  A    between atoms: _465  and  _466
REMARK  187  A    between atoms: _465  and  _468
REMARK  188  A    between atoms: _468  and  _469
REMARK  189  A    between atoms: _472  and  _474
REMARK  190  A    between atoms: _474  and  _475
REMARK  191  A    between atoms: _474  and  _477
REMARK  192  A    between atoms: _477  and  _478
REMARK  193  A    between atoms: _483  and  _485
REMARK  194  A    between atoms: _485  and  _486
REMARK  195  A    between atoms: _485  and  _488
REMARK  196  A    between atoms: _491  and  _493
REMARK  197  A    between atoms: _493  and  _494
REMARK  198  A    between atoms: _493  and  _496
REMARK  199  A    between atoms: _496  and  _497
REMARK  200  A    between atoms: _497  and  _498
REMARK  201  A    between atoms: _503  and  _505
REMARK  202  A    between atoms: _505  and  _506
REMARK  203  A    between atoms: _510  and  _511
REMARK  204  A    between atoms: _516  and  _518
REMARK  205  A    between atoms: _518  and  _519
REMARK  206  A    between atoms: _518  and  _521
REMARK  207  A    between atoms: _521  and  _522
REMARK  208  A    between atoms: _522  and  _523
REMARK  209  A    between atoms: _526  and  _528
REMARK  210  A    between atoms: _528  and  _529
REMARK  211  A    between atoms: _528  and  _531
REMARK  212  A    between atoms: _534  and  _536
REMARK  213  A    between atoms: _536  and  _537
REMARK  214  A    between atoms: _536  and  _539
REMARK  215  A    between atoms: _539  and  _540
REMARK  216  A    between atoms: _544  and  _545
REMARK  217  A    between atoms: _550  and  _552
REMARK  218  A    between atoms: _552  and  _553
REMARK  219  A    between atoms: _552  and  _555
REMARK  220  A    between atoms: _555  and  _556
REMARK  221  A    between atoms: _559  and  _561
REMARK  222  A    between atoms: _561  and  _562
REMARK  223  A    between atoms: _565  and  _567
REMARK  224  A    between atoms: _567  and  _568
REMARK  225  A    between atoms: _567  and  _570
REMARK  226  A    between atoms: _570  and  _571
REMARK  227  A    between atoms: _574  and  _576
REMARK  228  A    between atoms: _576  and  _577
REMARK  229  A    between atoms: _576  and  _579
REMARK  230  A    between atoms: _579  and  _580
REMARK  231  A    between atoms: _582  and  _584
REMARK  232  A    between atoms: _584  and  _585
REMARK  233  A    between atoms: _587  and  _589
REMARK  234  A    between atoms: _589  and  _590
REMARK  235  A    between atoms: _589  and  _592
REMARK  236  A    between atoms: _592  and  _593
REMARK  237  A    between atoms: _596  and  _598
REMARK  238  A    between atoms: _598  and  _599
REMARK  239  A    between atoms: _598  and  _601
REMARK                            x       y       z     vdW  Elec       q    Type
REMARK                         _______ _______ _______ _____ _____    ______ ____
ROOT
ATOM      1  O   HOH     1      -5.458 -12.511   5.743  0.00  0.00    +0.000 OA
ENDROOT
TORSDOF 0
REMARK  Name = ../refined-set-2016/3rux/3rux_pocket.pdb
REMARK  239 active torsions:
REMARK  status: ('A' for Active; 'I' for Inactive)
REMARK    1  A    between atoms: _1  and  _3
REMARK    2  A    between atoms: _3  and  _4
REMARK    3  A    between atoms: _3  and  _6
REMARK    4  A    between atoms: _6  and  _7
REMARK    5  A    between atoms: _10  and  _12
REMARK    6  A    between atoms: _12  and  _13
REMARK    7  A    between atoms: _15  and  _17
REMARK    8  A    between atoms: _17  and  _18
REMARK    9  A    between atoms: _17  and  _20
REMARK   10  A    between atoms: _20  and  _21
REMARK   11  A    between atoms: _23  and  _25
REMARK   12  A    between atoms: _25  and  _26
REMARK   13  A    between atoms: _25  and  _28
REMARK   14  A    between atoms: _28  and  _29
REMARK   15  A    between atoms: _32  and  _34
REMARK   16  A    between atoms: _34  and  _35
REMARK   17  A    between atoms: _34  and  _37
REMARK   18  A    between atoms: _37  and  _38
REMARK   19  A    between atoms: _43  and  _45
REMARK   20  A    between atoms: _45  and  _46
REMARK   21  A    between atoms: _49  and  _51
REMARK   22  A    between atoms: _51  and  _52
REMARK   23  A    between atoms: _51  and  _54
REMARK   24  A    between atoms: _54  and  _55
REMARK   25  A    between atoms: _58  and  _60
REMARK   26  A    between atoms: _60  and  _61
REMARK   27  A    between atoms: _60  and  _63
REMARK   28  A    between atoms: _63  and  _64
REMARK   29  A    between atoms: _67  and  _69
REMARK   30  A    between atoms: _69  and  _70
REMARK   31  A    between atoms: _69  and  _72
REMARK   32  A    between atoms: _72  and  _73
REMARK   33  A    between atoms: _76  and  _78
REMARK   34  A    between atoms: _78  and  _79
REMARK   35  A    between atoms: _78  and  _81
REMARK   36  A    between atoms: _81  and  _82
REMARK   37  A    between atoms: _85  and  _87
REMARK   38  A    between atoms: _87  and  _88
REMARK   39  A    between atoms: _91  and  _93
REMARK   40  A    between atoms: _93  and  _94
REMARK   41  A    between atoms: _93  and  _96
REMARK   42  A    between atoms: _96  and  _97
REMARK   43  A    between atoms: _97  and  _98
REMARK   44  A    between atoms: _103  and  _105
REMARK   45  A    between atoms: _105  and  _106
REMARK   46  A    between atoms: _105  and  _108
REMARK   47  A    between atoms: _108  and  _109
REMARK   48  A    between atoms: _112  and  _114
REMARK   49  A    between atoms: _114  and  _115
REMARK   50  A    between atoms: _118  and  _120
REMARK   51  A    between atoms: _120  and  _121
REMARK   52  A    between atoms: _123  and  _125
REMARK   53  A    between atoms: _125  and  _126
REMARK   54  A    between atoms: _125  and  _128
REMARK   55  A    between atoms: _128  and  _129
REMARK   56  A    between atoms: _129  and  _130
REMARK   57  A    between atoms: _130  and  _131
REMARK   58  A    between atoms: _140  and  _142
REMARK   59  A    between atoms: _142  and  _143
REMARK   60  A    between atoms: _145  and  _147
REMARK   61  A    between atoms: _147  and  _148
REMARK   62  A    between atoms: _147  and  _150
REMARK   63  A    between atoms: _150  and  _151
REMARK   64  A    between atoms: _151  and  _152
REMARK   65  A    between atoms: _152  and  _153
REMARK   66  A    between atoms: _162  and  _164
REMARK   67  A    between atoms: _164  and  _165
REMARK   68  A    between atoms: _164  and  _167
REMARK   69  A    between atoms: _167  and  _168
REMARK   70  A    between atoms: _173  and  _175
REMARK   71  A    between atoms: _175  and  _176
REMARK   72  A    between atoms: _178  and  _180
REMARK   73  A    between atoms: _180  and  _181
REMARK   74  A    between atoms: _180  and  _183
REMARK   75  A    between atoms: _183  and  _184
REMARK   76  A    between atoms: _184  and  _185
REMARK   77  A    between atoms: _185  and  _186
REMARK   78  A    between atoms: _195  and  _197
REMARK   79  A    between atoms: _197  and  _198
REMARK   80  A    between atoms: _200  and  _202
REMARK   81  A    between atoms: _202  and  _203
REMARK   82  A    between atoms: _202  and  _205
REMARK   83  A    between atoms: _205  and  _206
REMARK   84  A    between atoms: _216  and  _218
REMARK   85  A    between atoms: _218  and  _219
REMARK   86  A    between atoms: _222  and  _224
REMARK   87  A    between atoms: _224  and  _225
REMARK   88  A    between atoms: _228  and  _230
REMARK   89  A    between atoms: _230  and  _231
REMARK   90  A    between atoms: _230  and  _233
REMARK   91  A    between atoms: _233  and  _234
REMARK   92  A    between atoms: _237  and  _239
REMARK   93  A    between atoms: _239  and  _240
REMARK   94  A    between atoms: _239  and  _242
REMARK   95  A    between atoms: _242  and  _243
REMARK   96  A    between atoms: _243  and  _244
REMARK   97  A    between atoms: _249  and  _251
REMARK   98  A    between atoms: _251  and  _252
REMARK   99  A    between atoms: _251  and  _254
REMARK  100  A    between atoms: _254  and  _255
REMARK  101  A    between atoms: _258  and  _260
REMARK  102  A    between atoms: _260  and  _261
REMARK  103  A    between atoms: _260  and  _263
REMARK  104  A    between atoms: _263  and  _264
REMARK  105  A    between atoms: _267  and  _269
REMARK  106  A    between atoms: _269  and  _270
REMARK  107  A    between atoms: _269  and  _272
REMARK  108  A    between atoms: _272  and  _273
REMARK  109  A    between atoms: _276  and  _278
REMARK  110  A    between atoms: _278  and  _279
REMARK  111  A    between atoms: _278  and  _281
REMARK  112  A    between atoms: _281  and  _282
REMARK  113  A    between atoms: _284  and  _286
REMARK  114  A    between atoms: _286  and  _287
REMARK  115  A    between atoms: _286  and  _289
REMARK  116  A    between atoms: _292  and  _294
REMARK  117  A    between atoms: _294  and  _295
REMARK  118  A    between atoms: _294  and  _297
REMARK  119  A    between atoms: _297  and  _298
REMARK  120  A    between atoms: _298  and  _299
REMARK  121  A    between atoms: _299  and  _300
REMARK  122  A    between atoms: _300  and  _301
REMARK  123  A    between atoms: _305  and  _307
REMARK  124  A    between atoms: _307  and  _308
REMARK  125  A    between atoms: _307  and  _310
REMARK  126  A    between atoms: _310  and  _311
REMARK  127  A    between atoms: _322  and  _323
REMARK  128  A    between atoms: _328  and  _330
REMARK  129  A    between atoms: _330  and  _331
REMARK  130  A    between atoms: _330  and  _333
REMARK  131  A    between atoms: _333  and  _334
REMARK  132  A    between atoms: _339  and  _341
REMARK  133  A    between atoms: _341  and  _342
REMARK  134  A    between atoms: _341  and  _344
REMARK  135  A    between atoms: _344  and  _345
REMARK  136  A    between atoms: _348  and  _350
REMARK  137  A    between atoms: _350  and  _351
REMARK  138  A    between atoms: _350  and  _353
REMARK  139  A    between atoms: _356  and  _358
REMARK  140  A    between atoms: _358  and  _359
REMARK  141  A    between atoms: _361  and  _363
REMARK  142  A    between atoms: _363  and  _364
REMARK  143  A    between atoms: _363  and  _366
REMARK  144  A    between atoms: _366  and  _367
REMARK  145  A    between atoms: _367  and  _368
REMARK  146  A    between atoms: _368  and  _369
REMARK  147  A    between atoms: _369  and  _370
REMARK  148  A    between atoms: _374  and  _376
REMARK  149  A    between atoms: _376  and  _377
REMARK  150  A    between atoms: _376  and  _379
REMARK  151  A    between atoms: _379  and  _380
REMARK  152  A    between atoms: _383  and  _385
REMARK  153  A    between atoms: _385  and  _386
REMARK  154  A    between atoms: _389  and  _391
REMARK  155  A    between atoms: _391  and  _392
REMARK  156  A    between atoms: _394  and  _396
REMARK  157  A    between atoms: _396  and  _397
REMARK  158  A    between atoms: _396  and  _399
REMARK  159  A    between atoms: _399  and  _400
REMARK  160  A    between atoms: _403  and  _405
REMARK  161  A    between atoms: _405  and  _406
REMARK  162  A    between atoms: _405  and  _408
REMARK  163  A    between atoms: _408  and  _409
REMARK  164  A    between atoms: _412  and  _414
REMARK  165  A    between atoms: _414  and  _415
REMARK  166  A    between atoms: _418  and  _420
REMARK  167  A    between atoms: _420  and  _421
REMARK  168  A    between atoms: _420  and  _423
REMARK  169  A    between atoms: _423  and  _424
REMARK  170  A    between atoms: _424  and  _425
REMARK  171  A    between atoms: _428  and  _430
REMARK  172  A    between atoms: _430  and  _431
REMARK  173  A    between atoms: _430  and  _433
REMARK  174  A    between atoms: _436  and  _438
REMARK  175  A    between atoms: _438  and  _439
REMARK  176  A    between atoms: _438  and  _441
REMARK  177  A    between atoms: _441  and  _442
REMARK  178  A    between atoms: _445  and  _447
REMARK  179  A    between atoms: _447  and  _448
REMARK  180  A    between atoms: _450  and  _452
REMARK  181  A    between atoms: _452  and  _453
REMARK  182  A    between atoms: _452  and  _455
REMARK  183  A    between atoms: _458  and  _460
REMARK  184  A    between atoms: _460  and  _461
REMARK  185  A    between atoms: _463  and  _465
REMARK  186  A    between atoms: _465  and  _466
REMARK  187  A    between atoms: _465  and  _468
REMARK  188  A    between atoms: _468  and  _469
REMARK  189  A    between atoms: _472  and  _474
REMARK  190  A    between atoms: _474  and  _475
REMARK  191  A    between atoms: _474  and  _477
REMARK  192  A    between atoms: _477  and  _478
REMARK  193  A    between atoms: _483  and  _485
REMARK  194  A    between atoms: _485  and  _486
REMARK  195  A    between atoms: _485  and  _488
REMARK  196  A    between atoms: _491  and  _493
REMARK  197  A    between atoms: _493  and  _494
REMARK  198  A    between atoms: _493  and  _496
REMARK  199  A    between atoms: _496  and  _497
REMARK  200  A    between atoms: _497  and  _498
REMARK  201  A    between atoms: _503  and  _505
REMARK  202  A    between atoms: _505  and  _506
REMARK  203  A    between atoms: _510  and  _511
REMARK  204  A    between atoms: _516  and  _518
REMARK  205  A    between atoms: _518  and  _519
REMARK  206  A    between atoms: _518  and  _521
REMARK  207  A    between atoms: _521  and  _522
REMARK  208  A    between atoms: _522  and  _523
REMARK  209  A    between atoms: _526  and  _528
REMARK  210  A    between atoms: _528  and  _529
REMARK  211  A    between atoms: _528  and  _531
REMARK  212  A    between atoms: _534  and  _536
REMARK  213  A    between atoms: _536  and  _537
REMARK  214  A    between atoms: _536  and  _539
REMARK  215  A    between atoms: _539  and  _540
REMARK  216  A    between atoms: _544  and  _545
REMARK  217  A    between atoms: _550  and  _552
REMARK  218  A    between atoms: _552  and  _553
REMARK  219  A    between atoms: _552  and  _555
REMARK  220  A    between atoms: _555  and  _556
REMARK  221  A    between atoms: _559  and  _561
REMARK  222  A    between atoms: _561  and  _562
REMARK  223  A    between atoms: _565  and  _567
REMARK  224  A    between atoms: _567  and  _568
REMARK  225  A    between atoms: _567  and  _570
REMARK  226  A    between atoms: _570  and  _571
REMARK  227  A    between atoms: _574  and  _576
REMARK  228  A    between atoms: _576  and  _577
REMARK  229  A    between atoms: _576  and  _579
REMARK  230  A    between atoms: _579  and  _580
REMARK  231  A    between atoms: _582  and  _584
REMARK  232  A    between atoms: _584  and  _585
REMARK  233  A    between atoms: _587  and  _589
REMARK  234  A    between atoms: _589  and  _590
REMARK  235  A    between atoms: _589  and  _592
REMARK  236  A    between atoms: _592  and  _593
REMARK  237  A    between atoms: _596  and  _598
REMARK  238  A    between atoms: _598  and  _599
REMARK  239  A    between atoms: _598  and  _601
REMARK                            x       y       z     vdW  Elec       q    Type
REMARK                         _______ _______ _______ _____ _____    ______ ____
ROOT
ATOM      1  O   HOH     1      -3.129 -12.919   5.354  0.00  0.00    +0.000 OA
ENDROOT
TORSDOF 0
REMARK  Name = ../refined-set-2016/3rux/3rux_pocket.pdb
REMARK  239 active torsions:
REMARK  status: ('A' for Active; 'I' for Inactive)
REMARK    1  A    between atoms: _1  and  _3
REMARK    2  A    between atoms: _3  and  _4
REMARK    3  A    between atoms: _3  and  _6
REMARK    4  A    between atoms: _6  and  _7
REMARK    5  A    between atoms: _10  and  _12
REMARK    6  A    between atoms: _12  and  _13
REMARK    7  A    between atoms: _15  and  _17
REMARK    8  A    between atoms: _17  and  _18
REMARK    9  A    between atoms: _17  and  _20
REMARK   10  A    between atoms: _20  and  _21
REMARK   11  A    between atoms: _23  and  _25
REMARK   12  A    between atoms: _25  and  _26
REMARK   13  A    between atoms: _25  and  _28
REMARK   14  A    between atoms: _28  and  _29
REMARK   15  A    between atoms: _32  and  _34
REMARK   16  A    between atoms: _34  and  _35
REMARK   17  A    between atoms: _34  and  _37
REMARK   18  A    between atoms: _37  and  _38
REMARK   19  A    between atoms: _43  and  _45
REMARK   20  A    between atoms: _45  and  _46
REMARK   21  A    between atoms: _49  and  _51
REMARK   22  A    between atoms: _51  and  _52
REMARK   23  A    between atoms: _51  and  _54
REMARK   24  A    between atoms: _54  and  _55
REMARK   25  A    between atoms: _58  and  _60
REMARK   26  A    between atoms: _60  and  _61
REMARK   27  A    between atoms: _60  and  _63
REMARK   28  A    between atoms: _63  and  _64
REMARK   29  A    between atoms: _67  and  _69
REMARK   30  A    between atoms: _69  and  _70
REMARK   31  A    between atoms: _69  and  _72
REMARK   32  A    between atoms: _72  and  _73
REMARK   33  A    between atoms: _76  and  _78
REMARK   34  A    between atoms: _78  and  _79
REMARK   35  A    between atoms: _78  and  _81
REMARK   36  A    between atoms: _81  and  _82
REMARK   37  A    between atoms: _85  and  _87
REMARK   38  A    between atoms: _87  and  _88
REMARK   39  A    between atoms: _91  and  _93
REMARK   40  A    between atoms: _93  and  _94
REMARK   41  A    between atoms: _93  and  _96
REMARK   42  A    between atoms: _96  and  _97
REMARK   43  A    between atoms: _97  and  _98
REMARK   44  A    between atoms: _103  and  _105
REMARK   45  A    between atoms: _105  and  _106
REMARK   46  A    between atoms: _105  and  _108
REMARK   47  A    between atoms: _108  and  _109
REMARK   48  A    between atoms: _112  and  _114
REMARK   49  A    between atoms: _114  and  _115
REMARK   50  A    between atoms: _118  and  _120
REMARK   51  A    between atoms: _120  and  _121
REMARK   52  A    between atoms: _123  and  _125
REMARK   53  A    between atoms: _125  and  _126
REMARK   54  A    between atoms: _125  and  _128
REMARK   55  A    between atoms: _128  and  _129
REMARK   56  A    between atoms: _129  and  _130
REMARK   57  A    between atoms: _130  and  _131
REMARK   58  A    between atoms: _140  and  _142
REMARK   59  A    between atoms: _142  and  _143
REMARK   60  A    between atoms: _145  and  _147
REMARK   61  A    between atoms: _147  and  _148
REMARK   62  A    between atoms: _147  and  _150
REMARK   63  A    between atoms: _150  and  _151
REMARK   64  A    between atoms: _151  and  _152
REMARK   65  A    between atoms: _152  and  _153
REMARK   66  A    between atoms: _162  and  _164
REMARK   67  A    between atoms: _164  and  _165
REMARK   68  A    between atoms: _164  and  _167
REMARK   69  A    between atoms: _167  and  _168
REMARK   70  A    between atoms: _173  and  _175
REMARK   71  A    between atoms: _175  and  _176
REMARK   72  A    between atoms: _178  and  _180
REMARK   73  A    between atoms: _180  and  _181
REMARK   74  A    between atoms: _180  and  _183
REMARK   75  A    between atoms: _183  and  _184
REMARK   76  A    between atoms: _184  and  _185
REMARK   77  A    between atoms: _185  and  _186
REMARK   78  A    between atoms: _195  and  _197
REMARK   79  A    between atoms: _197  and  _198
REMARK   80  A    between atoms: _200  and  _202
REMARK   81  A    between atoms: _202  and  _203
REMARK   82  A    between atoms: _202  and  _205
REMARK   83  A    between atoms: _205  and  _206
REMARK   84  A    between atoms: _216  and  _218
REMARK   85  A    between atoms: _218  and  _219
REMARK   86  A    between atoms: _222  and  _224
REMARK   87  A    between atoms: _224  and  _225
REMARK   88  A    between atoms: _228  and  _230
REMARK   89  A    between atoms: _230  and  _231
REMARK   90  A    between atoms: _230  and  _233
REMARK   91  A    between atoms: _233  and  _234
REMARK   92  A    between atoms: _237  and  _239
REMARK   93  A    between atoms: _239  and  _240
REMARK   94  A    between atoms: _239  and  _242
REMARK   95  A    between atoms: _242  and  _243
REMARK   96  A    between atoms: _243  and  _244
REMARK   97  A    between atoms: _249  and  _251
REMARK   98  A    between atoms: _251  and  _252
REMARK   99  A    between atoms: _251  and  _254
REMARK  100  A    between atoms: _254  and  _255
REMARK  101  A    between atoms: _258  and  _260
REMARK  102  A    between atoms: _260  and  _261
REMARK  103  A    between atoms: _260  and  _263
REMARK  104  A    between atoms: _263  and  _264
REMARK  105  A    between atoms: _267  and  _269
REMARK  106  A    between atoms: _269  and  _270
REMARK  107  A    between atoms: _269  and  _272
REMARK  108  A    between atoms: _272  and  _273
REMARK  109  A    between atoms: _276  and  _278
REMARK  110  A    between atoms: _278  and  _279
REMARK  111  A    between atoms: _278  and  _281
REMARK  112  A    between atoms: _281  and  _282
REMARK  113  A    between atoms: _284  and  _286
REMARK  114  A    between atoms: _286  and  _287
REMARK  115  A    between atoms: _286  and  _289
REMARK  116  A    between atoms: _292  and  _294
REMARK  117  A    between atoms: _294  and  _295
REMARK  118  A    between atoms: _294  and  _297
REMARK  119  A    between atoms: _297  and  _298
REMARK  120  A    between atoms: _298  and  _299
REMARK  121  A    between atoms: _299  and  _300
REMARK  122  A    between atoms: _300  and  _301
REMARK  123  A    between atoms: _305  and  _307
REMARK  124  A    between atoms: _307  and  _308
REMARK  125  A    between atoms: _307  and  _310
REMARK  126  A    between atoms: _310  and  _311
REMARK  127  A    between atoms: _322  and  _323
REMARK  128  A    between atoms: _328  and  _330
REMARK  129  A    between atoms: _330  and  _331
REMARK  130  A    between atoms: _330  and  _333
REMARK  131  A    between atoms: _333  and  _334
REMARK  132  A    between atoms: _339  and  _341
REMARK  133  A    between atoms: _341  and  _342
REMARK  134  A    between atoms: _341  and  _344
REMARK  135  A    between atoms: _344  and  _345
REMARK  136  A    between atoms: _348  and  _350
REMARK  137  A    between atoms: _350  and  _351
REMARK  138  A    between atoms: _350  and  _353
REMARK  139  A    between atoms: _356  and  _358
REMARK  140  A    between atoms: _358  and  _359
REMARK  141  A    between atoms: _361  and  _363
REMARK  142  A    between atoms: _363  and  _364
REMARK  143  A    between atoms: _363  and  _366
REMARK  144  A    between atoms: _366  and  _367
REMARK  145  A    between atoms: _367  and  _368
REMARK  146  A    between atoms: _368  and  _369
REMARK  147  A    between atoms: _369  and  _370
REMARK  148  A    between atoms: _374  and  _376
REMARK  149  A    between atoms: _376  and  _377
REMARK  150  A    between atoms: _376  and  _379
REMARK  151  A    between atoms: _379  and  _380
REMARK  152  A    between atoms: _383  and  _385
REMARK  153  A    between atoms: _385  and  _386
REMARK  154  A    between atoms: _389  and  _391
REMARK  155  A    between atoms: _391  and  _392
REMARK  156  A    between atoms: _394  and  _396
REMARK  157  A    between atoms: _396  and  _397
REMARK  158  A    between atoms: _396  and  _399
REMARK  159  A    between atoms: _399  and  _400
REMARK  160  A    between atoms: _403  and  _405
REMARK  161  A    between atoms: _405  and  _406
REMARK  162  A    between atoms: _405  and  _408
REMARK  163  A    between atoms: _408  and  _409
REMARK  164  A    between atoms: _412  and  _414
REMARK  165  A    between atoms: _414  and  _415
REMARK  166  A    between atoms: _418  and  _420
REMARK  167  A    between atoms: _420  and  _421
REMARK  168  A    between atoms: _420  and  _423
REMARK  169  A    between atoms: _423  and  _424
REMARK  170  A    between atoms: _424  and  _425
REMARK  171  A    between atoms: _428  and  _430
REMARK  172  A    between atoms: _430  and  _431
REMARK  173  A    between atoms: _430  and  _433
REMARK  174  A    between atoms: _436  and  _438
REMARK  175  A    between atoms: _438  and  _439
REMARK  176  A    between atoms: _438  and  _441
REMARK  177  A    between atoms: _441  and  _442
REMARK  178  A    between atoms: _445  and  _447
REMARK  179  A    between atoms: _447  and  _448
REMARK  180  A    between atoms: _450  and  _452
REMARK  181  A    between atoms: _452  and  _453
REMARK  182  A    between atoms: _452  and  _455
REMARK  183  A    between atoms: _458  and  _460
REMARK  184  A    between atoms: _460  and  _461
REMARK  185  A    between atoms: _463  and  _465
REMARK  186  A    between atoms: _465  and  _466
REMARK  187  A    between atoms: _465  and  _468
REMARK  188  A    between atoms: _468  and  _469
REMARK  189  A    between atoms: _472  and  _474
REMARK  190  A    between atoms: _474  and  _475
REMARK  191  A    between atoms: _474  and  _477
REMARK  192  A    between atoms: _477  and  _478
REMARK  193  A    between atoms: _483  and  _485
REMARK  194  A    between atoms: _485  and  _486
REMARK  195  A    between atoms: _485  and  _488
REMARK  196  A    between atoms: _491  and  _493
REMARK  197  A    between atoms: _493  and  _494
REMARK  198  A    between atoms: _493  and  _496
REMARK  199  A    between atoms: _496  and  _497
REMARK  200  A    between atoms: _497  and  _498
REMARK  201  A    between atoms: _503  and  _505
REMARK  202  A    between atoms: _505  and  _506
REMARK  203  A    between atoms: _510  and  _511
REMARK  204  A    between atoms: _516  and  _518
REMARK  205  A    between atoms: _518  and  _519
REMARK  206  A    between atoms: _518  and  _521
REMARK  207  A    between atoms: _521  and  _522
REMARK  208  A    between atoms: _522  and  _523
REMARK  209  A    between atoms: _526  and  _528
REMARK  210  A    between atoms: _528  and  _529
REMARK  211  A    between atoms: _528  and  _531
REMARK  212  A    between atoms: _534  and  _536
REMARK  213  A    between atoms: _536  and  _537
REMARK  214  A    between atoms: _536  and  _539
REMARK  215  A    between atoms: _539  and  _540
REMARK  216  A    between atoms: _544  and  _545
REMARK  217  A    between atoms: _550  and  _552
REMARK  218  A    between atoms: _552  and  _553
REMARK  219  A    between atoms: _552  and  _555
REMARK  220  A    between atoms: _555  and  _556
REMARK  221  A    between atoms: _559  and  _561
REMARK  222  A    between atoms: _561  and  _562
REMARK  223  A    between atoms: _565  and  _567
REMARK  224  A    between atoms: _567  and  _568
REMARK  225  A    between atoms: _567  and  _570
REMARK  226  A    between atoms: _570  and  _571
REMARK  227  A    between atoms: _574  and  _576
REMARK  228  A    between atoms: _576  and  _577
REMARK  229  A    between atoms: _576  and  _579
REMARK  230  A    between atoms: _579  and  _580
REMARK  231  A    between atoms: _582  and  _584
REMARK  232  A    between atoms: _584  and  _585
REMARK  233  A    between atoms: _587  and  _589
REMARK  234  A    between atoms: _589  and  _590
REMARK  235  A    between atoms: _589  and  _592
REMARK  236  A    between atoms: _592  and  _593
REMARK  237  A    between atoms: _596  and  _598
REMARK  238  A    between atoms: _598  and  _599
REMARK  239  A    between atoms: _598  and  _601
REMARK                            x       y       z     vdW  Elec       q    Type
REMARK                         _______ _______ _______ _____ _____    ______ ____
ROOT
ATOM      1  O   HOH     1       3.447   1.340  11.377  0.00  0.00    +0.000 OA
ENDROOT
TORSDOF 0
REMARK  Name = ../refined-set-2016/3rux/3rux_pocket.pdb
REMARK  239 active torsions:
REMARK  status: ('A' for Active; 'I' for Inactive)
REMARK    1  A    between atoms: _1  and  _3
REMARK    2  A    between atoms: _3  and  _4
REMARK    3  A    between atoms: _3  and  _6
REMARK    4  A    between atoms: _6  and  _7
REMARK    5  A    between atoms: _10  and  _12
REMARK    6  A    between atoms: _12  and  _13
REMARK    7  A    between atoms: _15  and  _17
REMARK    8  A    between atoms: _17  and  _18
REMARK    9  A    between atoms: _17  and  _20
REMARK   10  A    between atoms: _20  and  _21
REMARK   11  A    between atoms: _23  and  _25
REMARK   12  A    between atoms: _25  and  _26
REMARK   13  A    between atoms: _25  and  _28
REMARK   14  A    between atoms: _28  and  _29
REMARK   15  A    between atoms: _32  and  _34
REMARK   16  A    between atoms: _34  and  _35
REMARK   17  A    between atoms: _34  and  _37
REMARK   18  A    between atoms: _37  and  _38
REMARK   19  A    between atoms: _43  and  _45
REMARK   20  A    between atoms: _45  and  _46
REMARK   21  A    between atoms: _49  and  _51
REMARK   22  A    between atoms: _51  and  _52
REMARK   23  A    between atoms: _51  and  _54
REMARK   24  A    between atoms: _54  and  _55
REMARK   25  A    between atoms: _58  and  _60
REMARK   26  A    between atoms: _60  and  _61
REMARK   27  A    between atoms: _60  and  _63
REMARK   28  A    between atoms: _63  and  _64
REMARK   29  A    between atoms: _67  and  _69
REMARK   30  A    between atoms: _69  and  _70
REMARK   31  A    between atoms: _69  and  _72
REMARK   32  A    between atoms: _72  and  _73
REMARK   33  A    between atoms: _76  and  _78
REMARK   34  A    between atoms: _78  and  _79
REMARK   35  A    between atoms: _78  and  _81
REMARK   36  A    between atoms: _81  and  _82
REMARK   37  A    between atoms: _85  and  _87
REMARK   38  A    between atoms: _87  and  _88
REMARK   39  A    between atoms: _91  and  _93
REMARK   40  A    between atoms: _93  and  _94
REMARK   41  A    between atoms: _93  and  _96
REMARK   42  A    between atoms: _96  and  _97
REMARK   43  A    between atoms: _97  and  _98
REMARK   44  A    between atoms: _103  and  _105
REMARK   45  A    between atoms: _105  and  _106
REMARK   46  A    between atoms: _105  and  _108
REMARK   47  A    between atoms: _108  and  _109
REMARK   48  A    between atoms: _112  and  _114
REMARK   49  A    between atoms: _114  and  _115
REMARK   50  A    between atoms: _118  and  _120
REMARK   51  A    between atoms: _120  and  _121
REMARK   52  A    between atoms: _123  and  _125
REMARK   53  A    between atoms: _125  and  _126
REMARK   54  A    between atoms: _125  and  _128
REMARK   55  A    between atoms: _128  and  _129
REMARK   56  A    between atoms: _129  and  _130
REMARK   57  A    between atoms: _130  and  _131
REMARK   58  A    between atoms: _140  and  _142
REMARK   59  A    between atoms: _142  and  _143
REMARK   60  A    between atoms: _145  and  _147
REMARK   61  A    between atoms: _147  and  _148
REMARK   62  A    between atoms: _147  and  _150
REMARK   63  A    between atoms: _150  and  _151
REMARK   64  A    between atoms: _151  and  _152
REMARK   65  A    between atoms: _152  and  _153
REMARK   66  A    between atoms: _162  and  _164
REMARK   67  A    between atoms: _164  and  _165
REMARK   68  A    between atoms: _164  and  _167
REMARK   69  A    between atoms: _167  and  _168
REMARK   70  A    between atoms: _173  and  _175
REMARK   71  A    between atoms: _175  and  _176
REMARK   72  A    between atoms: _178  and  _180
REMARK   73  A    between atoms: _180  and  _181
REMARK   74  A    between atoms: _180  and  _183
REMARK   75  A    between atoms: _183  and  _184
REMARK   76  A    between atoms: _184  and  _185
REMARK   77  A    between atoms: _185  and  _186
REMARK   78  A    between atoms: _195  and  _197
REMARK   79  A    between atoms: _197  and  _198
REMARK   80  A    between atoms: _200  and  _202
REMARK   81  A    between atoms: _202  and  _203
REMARK   82  A    between atoms: _202  and  _205
REMARK   83  A    between atoms: _205  and  _206
REMARK   84  A    between atoms: _216  and  _218
REMARK   85  A    between atoms: _218  and  _219
REMARK   86  A    between atoms: _222  and  _224
REMARK   87  A    between atoms: _224  and  _225
REMARK   88  A    between atoms: _228  and  _230
REMARK   89  A    between atoms: _230  and  _231
REMARK   90  A    between atoms: _230  and  _233
REMARK   91  A    between atoms: _233  and  _234
REMARK   92  A    between atoms: _237  and  _239
REMARK   93  A    between atoms: _239  and  _240
REMARK   94  A    between atoms: _239  and  _242
REMARK   95  A    between atoms: _242  and  _243
REMARK   96  A    between atoms: _243  and  _244
REMARK   97  A    between atoms: _249  and  _251
REMARK   98  A    between atoms: _251  and  _252
REMARK   99  A    between atoms: _251  and  _254
REMARK  100  A    between atoms: _254  and  _255
REMARK  101  A    between atoms: _258  and  _260
REMARK  102  A    between atoms: _260  and  _261
REMARK  103  A    between atoms: _260  and  _263
REMARK  104  A    between atoms: _263  and  _264
REMARK  105  A    between atoms: _267  and  _269
REMARK  106  A    between atoms: _269  and  _270
REMARK  107  A    between atoms: _269  and  _272
REMARK  108  A    between atoms: _272  and  _273
REMARK  109  A    between atoms: _276  and  _278
REMARK  110  A    between atoms: _278  and  _279
REMARK  111  A    between atoms: _278  and  _281
REMARK  112  A    between atoms: _281  and  _282
REMARK  113  A    between atoms: _284  and  _286
REMARK  114  A    between atoms: _286  and  _287
REMARK  115  A    between atoms: _286  and  _289
REMARK  116  A    between atoms: _292  and  _294
REMARK  117  A    between atoms: _294  and  _295
REMARK  118  A    between atoms: _294  and  _297
REMARK  119  A    between atoms: _297  and  _298
REMARK  120  A    between atoms: _298  and  _299
REMARK  121  A    between atoms: _299  and  _300
REMARK  122  A    between atoms: _300  and  _301
REMARK  123  A    between atoms: _305  and  _307
REMARK  124  A    between atoms: _307  and  _308
REMARK  125  A    between atoms: _307  and  _310
REMARK  126  A    between atoms: _310  and  _311
REMARK  127  A    between atoms: _322  and  _323
REMARK  128  A    between atoms: _328  and  _330
REMARK  129  A    between atoms: _330  and  _331
REMARK  130  A    between atoms: _330  and  _333
REMARK  131  A    between atoms: _333  and  _334
REMARK  132  A    between atoms: _339  and  _341
REMARK  133  A    between atoms: _341  and  _342
REMARK  134  A    between atoms: _341  and  _344
REMARK  135  A    between atoms: _344  and  _345
REMARK  136  A    between atoms: _348  and  _350
REMARK  137  A    between atoms: _350  and  _351
REMARK  138  A    between atoms: _350  and  _353
REMARK  139  A    between atoms: _356  and  _358
REMARK  140  A    between atoms: _358  and  _359
REMARK  141  A    between atoms: _361  and  _363
REMARK  142  A    between atoms: _363  and  _364
REMARK  143  A    between atoms: _363  and  _366
REMARK  144  A    between atoms: _366  and  _367
REMARK  145  A    between atoms: _367  and  _368
REMARK  146  A    between atoms: _368  and  _369
REMARK  147  A    between atoms: _369  and  _370
REMARK  148  A    between atoms: _374  and  _376
REMARK  149  A    between atoms: _376  and  _377
REMARK  150  A    between atoms: _376  and  _379
REMARK  151  A    between atoms: _379  and  _380
REMARK  152  A    between atoms: _383  and  _385
REMARK  153  A    between atoms: _385  and  _386
REMARK  154  A    between atoms: _389  and  _391
REMARK  155  A    between atoms: _391  and  _392
REMARK  156  A    between atoms: _394  and  _396
REMARK  157  A    between atoms: _396  and  _397
REMARK  158  A    between atoms: _396  and  _399
REMARK  159  A    between atoms: _399  and  _400
REMARK  160  A    between atoms: _403  and  _405
REMARK  161  A    between atoms: _405  and  _406
REMARK  162  A    between atoms: _405  and  _408
REMARK  163  A    between atoms: _408  and  _409
REMARK  164  A    between atoms: _412  and  _414
REMARK  165  A    between atoms: _414  and  _415
REMARK  166  A    between atoms: _418  and  _420
REMARK  167  A    between atoms: _420  and  _421
REMARK  168  A    between atoms: _420  and  _423
REMARK  169  A    between atoms: _423  and  _424
REMARK  170  A    between atoms: _424  and  _425
REMARK  171  A    between atoms: _428  and  _430
REMARK  172  A    between atoms: _430  and  _431
REMARK  173  A    between atoms: _430  and  _433
REMARK  174  A    between atoms: _436  and  _438
REMARK  175  A    between atoms: _438  and  _439
REMARK  176  A    between atoms: _438  and  _441
REMARK  177  A    between atoms: _441  and  _442
REMARK  178  A    between atoms: _445  and  _447
REMARK  179  A    between atoms: _447  and  _448
REMARK  180  A    between atoms: _450  and  _452
REMARK  181  A    between atoms: _452  and  _453
REMARK  182  A    between atoms: _452  and  _455
REMARK  183  A    between atoms: _458  and  _460
REMARK  184  A    between atoms: _460  and  _461
REMARK  185  A    between atoms: _463  and  _465
REMARK  186  A    between atoms: _465  and  _466
REMARK  187  A    between atoms: _465  and  _468
REMARK  188  A    between atoms: _468  and  _469
REMARK  189  A    between atoms: _472  and  _474
REMARK  190  A    between atoms: _474  and  _475
REMARK  191  A    between atoms: _474  and  _477
REMARK  192  A    between atoms: _477  and  _478
REMARK  193  A    between atoms: _483  and  _485
REMARK  194  A    between atoms: _485  and  _486
REMARK  195  A    between atoms: _485  and  _488
REMARK  196  A    between atoms: _491  and  _493
REMARK  197  A    between atoms: _493  and  _494
REMARK  198  A    between atoms: _493  and  _496
REMARK  199  A    between atoms: _496  and  _497
REMARK  200  A    between atoms: _497  and  _498
REMARK  201  A    between atoms: _503  and  _505
REMARK  202  A    between atoms: _505  and  _506
REMARK  203  A    between atoms: _510  and  _511
REMARK  204  A    between atoms: _516  and  _518
REMARK  205  A    between atoms: _518  and  _519
REMARK  206  A    between atoms: _518  and  _521
REMARK  207  A    between atoms: _521  and  _522
REMARK  208  A    between atoms: _522  and  _523
REMARK  209  A    between atoms: _526  and  _528
REMARK  210  A    between atoms: _528  and  _529
REMARK  211  A    between atoms: _528  and  _531
REMARK  212  A    between atoms: _534  and  _536
REMARK  213  A    between atoms: _536  and  _537
REMARK  214  A    between atoms: _536  and  _539
REMARK  215  A    between atoms: _539  and  _540
REMARK  216  A    between atoms: _544  and  _545
REMARK  217  A    between atoms: _550  and  _552
REMARK  218  A    between atoms: _552  and  _553
REMARK  219  A    between atoms: _552  and  _555
REMARK  220  A    between atoms: _555  and  _556
REMARK  221  A    between atoms: _559  and  _561
REMARK  222  A    between atoms: _561  and  _562
REMARK  223  A    between atoms: _565  and  _567
REMARK  224  A    between atoms: _567  and  _568
REMARK  225  A    between atoms: _567  and  _570
REMARK  226  A    between atoms: _570  and  _571
REMARK  227  A    between atoms: _574  and  _576
REMARK  228  A    between atoms: _576  and  _577
REMARK  229  A    between atoms: _576  and  _579
REMARK  230  A    between atoms: _579  and  _580
REMARK  231  A    between atoms: _582  and  _584
REMARK  232  A    between atoms: _584  and  _585
REMARK  233  A    between atoms: _587  and  _589
REMARK  234  A    between atoms: _589  and  _590
REMARK  235  A    between atoms: _589  and  _592
REMARK  236  A    between atoms: _592  and  _593
REMARK  237  A    between atoms: _596  and  _598
REMARK  238  A    between atoms: _598  and  _599
REMARK  239  A    between atoms: _598  and  _601
REMARK                            x       y       z     vdW  Elec       q    Type
REMARK                         _______ _______ _______ _____ _____    ______ ____
ROOT
ATOM      1  O   HOH     1       4.840  -5.111   9.649  0.00  0.00    +0.000 OA
ENDROOT
TORSDOF 0
REMARK  Name = ../refined-set-2016/3rux/3rux_pocket.pdb
REMARK  239 active torsions:
REMARK  status: ('A' for Active; 'I' for Inactive)
REMARK    1  A    between atoms: _1  and  _3
REMARK    2  A    between atoms: _3  and  _4
REMARK    3  A    between atoms: _3  and  _6
REMARK    4  A    between atoms: _6  and  _7
REMARK    5  A    between atoms: _10  and  _12
REMARK    6  A    between atoms: _12  and  _13
REMARK    7  A    between atoms: _15  and  _17
REMARK    8  A    between atoms: _17  and  _18
REMARK    9  A    between atoms: _17  and  _20
REMARK   10  A    between atoms: _20  and  _21
REMARK   11  A    between atoms: _23  and  _25
REMARK   12  A    between atoms: _25  and  _26
REMARK   13  A    between atoms: _25  and  _28
REMARK   14  A    between atoms: _28  and  _29
REMARK   15  A    between atoms: _32  and  _34
REMARK   16  A    between atoms: _34  and  _35
REMARK   17  A    between atoms: _34  and  _37
REMARK   18  A    between atoms: _37  and  _38
REMARK   19  A    between atoms: _43  and  _45
REMARK   20  A    between atoms: _45  and  _46
REMARK   21  A    between atoms: _49  and  _51
REMARK   22  A    between atoms: _51  and  _52
REMARK   23  A    between atoms: _51  and  _54
REMARK   24  A    between atoms: _54  and  _55
REMARK   25  A    between atoms: _58  and  _60
REMARK   26  A    between atoms: _60  and  _61
REMARK   27  A    between atoms: _60  and  _63
REMARK   28  A    between atoms: _63  and  _64
REMARK   29  A    between atoms: _67  and  _69
REMARK   30  A    between atoms: _69  and  _70
REMARK   31  A    between atoms: _69  and  _72
REMARK   32  A    between atoms: _72  and  _73
REMARK   33  A    between atoms: _76  and  _78
REMARK   34  A    between atoms: _78  and  _79
REMARK   35  A    between atoms: _78  and  _81
REMARK   36  A    between atoms: _81  and  _82
REMARK   37  A    between atoms: _85  and  _87
REMARK   38  A    between atoms: _87  and  _88
REMARK   39  A    between atoms: _91  and  _93
REMARK   40  A    between atoms: _93  and  _94
REMARK   41  A    between atoms: _93  and  _96
REMARK   42  A    between atoms: _96  and  _97
REMARK   43  A    between atoms: _97  and  _98
REMARK   44  A    between atoms: _103  and  _105
REMARK   45  A    between atoms: _105  and  _106
REMARK   46  A    between atoms: _105  and  _108
REMARK   47  A    between atoms: _108  and  _109
REMARK   48  A    between atoms: _112  and  _114
REMARK   49  A    between atoms: _114  and  _115
REMARK   50  A    between atoms: _118  and  _120
REMARK   51  A    between atoms: _120  and  _121
REMARK   52  A    between atoms: _123  and  _125
REMARK   53  A    between atoms: _125  and  _126
REMARK   54  A    between atoms: _125  and  _128
REMARK   55  A    between atoms: _128  and  _129
REMARK   56  A    between atoms: _129  and  _130
REMARK   57  A    between atoms: _130  and  _131
REMARK   58  A    between atoms: _140  and  _142
REMARK   59  A    between atoms: _142  and  _143
REMARK   60  A    between atoms: _145  and  _147
REMARK   61  A    between atoms: _147  and  _148
REMARK   62  A    between atoms: _147  and  _150
REMARK   63  A    between atoms: _150  and  _151
REMARK   64  A    between atoms: _151  and  _152
REMARK   65  A    between atoms: _152  and  _153
REMARK   66  A    between atoms: _162  and  _164
REMARK   67  A    between atoms: _164  and  _165
REMARK   68  A    between atoms: _164  and  _167
REMARK   69  A    between atoms: _167  and  _168
REMARK   70  A    between atoms: _173  and  _175
REMARK   71  A    between atoms: _175  and  _176
REMARK   72  A    between atoms: _178  and  _180
REMARK   73  A    between atoms: _180  and  _181
REMARK   74  A    between atoms: _180  and  _183
REMARK   75  A    between atoms: _183  and  _184
REMARK   76  A    between atoms: _184  and  _185
REMARK   77  A    between atoms: _185  and  _186
REMARK   78  A    between atoms: _195  and  _197
REMARK   79  A    between atoms: _197  and  _198
REMARK   80  A    between atoms: _200  and  _202
REMARK   81  A    between atoms: _202  and  _203
REMARK   82  A    between atoms: _202  and  _205
REMARK   83  A    between atoms: _205  and  _206
REMARK   84  A    between atoms: _216  and  _218
REMARK   85  A    between atoms: _218  and  _219
REMARK   86  A    between atoms: _222  and  _224
REMARK   87  A    between atoms: _224  and  _225
REMARK   88  A    between atoms: _228  and  _230
REMARK   89  A    between atoms: _230  and  _231
REMARK   90  A    between atoms: _230  and  _233
REMARK   91  A    between atoms: _233  and  _234
REMARK   92  A    between atoms: _237  and  _239
REMARK   93  A    between atoms: _239  and  _240
REMARK   94  A    between atoms: _239  and  _242
REMARK   95  A    between atoms: _242  and  _243
REMARK   96  A    between atoms: _243  and  _244
REMARK   97  A    between atoms: _249  and  _251
REMARK   98  A    between atoms: _251  and  _252
REMARK   99  A    between atoms: _251  and  _254
REMARK  100  A    between atoms: _254  and  _255
REMARK  101  A    between atoms: _258  and  _260
REMARK  102  A    between atoms: _260  and  _261
REMARK  103  A    between atoms: _260  and  _263
REMARK  104  A    between atoms: _263  and  _264
REMARK  105  A    between atoms: _267  and  _269
REMARK  106  A    between atoms: _269  and  _270
REMARK  107  A    between atoms: _269  and  _272
REMARK  108  A    between atoms: _272  and  _273
REMARK  109  A    between atoms: _276  and  _278
REMARK  110  A    between atoms: _278  and  _279
REMARK  111  A    between atoms: _278  and  _281
REMARK  112  A    between atoms: _281  and  _282
REMARK  113  A    between atoms: _284  and  _286
REMARK  114  A    between atoms: _286  and  _287
REMARK  115  A    between atoms: _286  and  _289
REMARK  116  A    between atoms: _292  and  _294
REMARK  117  A    between atoms: _294  and  _295
REMARK  118  A    between atoms: _294  and  _297
REMARK  119  A    between atoms: _297  and  _298
REMARK  120  A    between atoms: _298  and  _299
REMARK  121  A    between atoms: _299  and  _300
REMARK  122  A    between atoms: _300  and  _301
REMARK  123  A    between atoms: _305  and  _307
REMARK  124  A    between atoms: _307  and  _308
REMARK  125  A    between atoms: _307  and  _310
REMARK  126  A    between atoms: _310  and  _311
REMARK  127  A    between atoms: _322  and  _323
REMARK  128  A    between atoms: _328  and  _330
REMARK  129  A    between atoms: _330  and  _331
REMARK  130  A    between atoms: _330  and  _333
REMARK  131  A    between atoms: _333  and  _334
REMARK  132  A    between atoms: _339  and  _341
REMARK  133  A    between atoms: _341  and  _342
REMARK  134  A    between atoms: _341  and  _344
REMARK  135  A    between atoms: _344  and  _345
REMARK  136  A    between atoms: _348  and  _350
REMARK  137  A    between atoms: _350  and  _351
REMARK  138  A    between atoms: _350  and  _353
REMARK  139  A    between atoms: _356  and  _358
REMARK  140  A    between atoms: _358  and  _359
REMARK  141  A    between atoms: _361  and  _363
REMARK  142  A    between atoms: _363  and  _364
REMARK  143  A    between atoms: _363  and  _366
REMARK  144  A    between atoms: _366  and  _367
REMARK  145  A    between atoms: _367  and  _368
REMARK  146  A    between atoms: _368  and  _369
REMARK  147  A    between atoms: _369  and  _370
REMARK  148  A    between atoms: _374  and  _376
REMARK  149  A    between atoms: _376  and  _377
REMARK  150  A    between atoms: _376  and  _379
REMARK  151  A    between atoms: _379  and  _380
REMARK  152  A    between atoms: _383  and  _385
REMARK  153  A    between atoms: _385  and  _386
REMARK  154  A    between atoms: _389  and  _391
REMARK  155  A    between atoms: _391  and  _392
REMARK  156  A    between atoms: _394  and  _396
REMARK  157  A    between atoms: _396  and  _397
REMARK  158  A    between atoms: _396  and  _399
REMARK  159  A    between atoms: _399  and  _400
REMARK  160  A    between atoms: _403  and  _405
REMARK  161  A    between atoms: _405  and  _406
REMARK  162  A    between atoms: _405  and  _408
REMARK  163  A    between atoms: _408  and  _409
REMARK  164  A    between atoms: _412  and  _414
REMARK  165  A    between atoms: _414  and  _415
REMARK  166  A    between atoms: _418  and  _420
REMARK  167  A    between atoms: _420  and  _421
REMARK  168  A    between atoms: _420  and  _423
REMARK  169  A    between atoms: _423  and  _424
REMARK  170  A    between atoms: _424  and  _425
REMARK  171  A    between atoms: _428  and  _430
REMARK  172  A    between atoms: _430  and  _431
REMARK  173  A    between atoms: _430  and  _433
REMARK  174  A    between atoms: _436  and  _438
REMARK  175  A    between atoms: _438  and  _439
REMARK  176  A    between atoms: _438  and  _441
REMARK  177  A    between atoms: _441  and  _442
REMARK  178  A    between atoms: _445  and  _447
REMARK  179  A    between atoms: _447  and  _448
REMARK  180  A    between atoms: _450  and  _452
REMARK  181  A    between atoms: _452  and  _453
REMARK  182  A    between atoms: _452  and  _455
REMARK  183  A    between atoms: _458  and  _460
REMARK  184  A    between atoms: _460  and  _461
REMARK  185  A    between atoms: _463  and  _465
REMARK  186  A    between atoms: _465  and  _466
REMARK  187  A    between atoms: _465  and  _468
REMARK  188  A    between atoms: _468  and  _469
REMARK  189  A    between atoms: _472  and  _474
REMARK  190  A    between atoms: _474  and  _475
REMARK  191  A    between atoms: _474  and  _477
REMARK  192  A    between atoms: _477  and  _478
REMARK  193  A    between atoms: _483  and  _485
REMARK  194  A    between atoms: _485  and  _486
REMARK  195  A    between atoms: _485  and  _488
REMARK  196  A    between atoms: _491  and  _493
REMARK  197  A    between atoms: _493  and  _494
REMARK  198  A    between atoms: _493  and  _496
REMARK  199  A    between atoms: _496  and  _497
REMARK  200  A    between atoms: _497  and  _498
REMARK  201  A    between atoms: _503  and  _505
REMARK  202  A    between atoms: _505  and  _506
REMARK  203  A    between atoms: _510  and  _511
REMARK  204  A    between atoms: _516  and  _518
REMARK  205  A    between atoms: _518  and  _519
REMARK  206  A    between atoms: _518  and  _521
REMARK  207  A    between atoms: _521  and  _522
REMARK  208  A    between atoms: _522  and  _523
REMARK  209  A    between atoms: _526  and  _528
REMARK  210  A    between atoms: _528  and  _529
REMARK  211  A    between atoms: _528  and  _531
REMARK  212  A    between atoms: _534  and  _536
REMARK  213  A    between atoms: _536  and  _537
REMARK  214  A    between atoms: _536  and  _539
REMARK  215  A    between atoms: _539  and  _540
REMARK  216  A    between atoms: _544  and  _545
REMARK  217  A    between atoms: _550  and  _552
REMARK  218  A    between atoms: _552  and  _553
REMARK  219  A    between atoms: _552  and  _555
REMARK  220  A    between atoms: _555  and  _556
REMARK  221  A    between atoms: _559  and  _561
REMARK  222  A    between atoms: _561  and  _562
REMARK  223  A    between atoms: _565  and  _567
REMARK  224  A    between atoms: _567  and  _568
REMARK  225  A    between atoms: _567  and  _570
REMARK  226  A    between atoms: _570  and  _571
REMARK  227  A    between atoms: _574  and  _576
REMARK  228  A    between atoms: _576  and  _577
REMARK  229  A    between atoms: _576  and  _579
REMARK  230  A    between atoms: _579  and  _580
REMARK  231  A    between atoms: _582  and  _584
REMARK  232  A    between atoms: _584  and  _585
REMARK  233  A    between atoms: _587  and  _589
REMARK  234  A    between atoms: _589  and  _590
REMARK  235  A    between atoms: _589  and  _592
REMARK  236  A    between atoms: _592  and  _593
REMARK  237  A    between atoms: _596  and  _598
REMARK  238  A    between atoms: _598  and  _599
REMARK  239  A    between atoms: _598  and  _601
REMARK                            x       y       z     vdW  Elec       q    Type
REMARK                         _______ _______ _______ _____ _____    ______ ____
ROOT
ATOM      1  O   HOH     1       6.795  -7.548  15.035  0.00  0.00    +0.000 OA
ENDROOT
TORSDOF 0
REMARK  Name = ../refined-set-2016/3rux/3rux_pocket.pdb
REMARK  239 active torsions:
REMARK  status: ('A' for Active; 'I' for Inactive)
REMARK    1  A    between atoms: _1  and  _3
REMARK    2  A    between atoms: _3  and  _4
REMARK    3  A    between atoms: _3  and  _6
REMARK    4  A    between atoms: _6  and  _7
REMARK    5  A    between atoms: _10  and  _12
REMARK    6  A    between atoms: _12  and  _13
REMARK    7  A    between atoms: _15  and  _17
REMARK    8  A    between atoms: _17  and  _18
REMARK    9  A    between atoms: _17  and  _20
REMARK   10  A    between atoms: _20  and  _21
REMARK   11  A    between atoms: _23  and  _25
REMARK   12  A    between atoms: _25  and  _26
REMARK   13  A    between atoms: _25  and  _28
REMARK   14  A    between atoms: _28  and  _29
REMARK   15  A    between atoms: _32  and  _34
REMARK   16  A    between atoms: _34  and  _35
REMARK   17  A    between atoms: _34  and  _37
REMARK   18  A    between atoms: _37  and  _38
REMARK   19  A    between atoms: _43  and  _45
REMARK   20  A    between atoms: _45  and  _46
REMARK   21  A    between atoms: _49  and  _51
REMARK   22  A    between atoms: _51  and  _52
REMARK   23  A    between atoms: _51  and  _54
REMARK   24  A    between atoms: _54  and  _55
REMARK   25  A    between atoms: _58  and  _60
REMARK   26  A    between atoms: _60  and  _61
REMARK   27  A    between atoms: _60  and  _63
REMARK   28  A    between atoms: _63  and  _64
REMARK   29  A    between atoms: _67  and  _69
REMARK   30  A    between atoms: _69  and  _70
REMARK   31  A    between atoms: _69  and  _72
REMARK   32  A    between atoms: _72  and  _73
REMARK   33  A    between atoms: _76  and  _78
REMARK   34  A    between atoms: _78  and  _79
REMARK   35  A    between atoms: _78  and  _81
REMARK   36  A    between atoms: _81  and  _82
REMARK   37  A    between atoms: _85  and  _87
REMARK   38  A    between atoms: _87  and  _88
REMARK   39  A    between atoms: _91  and  _93
REMARK   40  A    between atoms: _93  and  _94
REMARK   41  A    between atoms: _93  and  _96
REMARK   42  A    between atoms: _96  and  _97
REMARK   43  A    between atoms: _97  and  _98
REMARK   44  A    between atoms: _103  and  _105
REMARK   45  A    between atoms: _105  and  _106
REMARK   46  A    between atoms: _105  and  _108
REMARK   47  A    between atoms: _108  and  _109
REMARK   48  A    between atoms: _112  and  _114
REMARK   49  A    between atoms: _114  and  _115
REMARK   50  A    between atoms: _118  and  _120
REMARK   51  A    between atoms: _120  and  _121
REMARK   52  A    between atoms: _123  and  _125
REMARK   53  A    between atoms: _125  and  _126
REMARK   54  A    between atoms: _125  and  _128
REMARK   55  A    between atoms: _128  and  _129
REMARK   56  A    between atoms: _129  and  _130
REMARK   57  A    between atoms: _130  and  _131
REMARK   58  A    between atoms: _140  and  _142
REMARK   59  A    between atoms: _142  and  _143
REMARK   60  A    between atoms: _145  and  _147
REMARK   61  A    between atoms: _147  and  _148
REMARK   62  A    between atoms: _147  and  _150
REMARK   63  A    between atoms: _150  and  _151
REMARK   64  A    between atoms: _151  and  _152
REMARK   65  A    between atoms: _152  and  _153
REMARK   66  A    between atoms: _162  and  _164
REMARK   67  A    between atoms: _164  and  _165
REMARK   68  A    between atoms: _164  and  _167
REMARK   69  A    between atoms: _167  and  _168
REMARK   70  A    between atoms: _173  and  _175
REMARK   71  A    between atoms: _175  and  _176
REMARK   72  A    between atoms: _178  and  _180
REMARK   73  A    between atoms: _180  and  _181
REMARK   74  A    between atoms: _180  and  _183
REMARK   75  A    between atoms: _183  and  _184
REMARK   76  A    between atoms: _184  and  _185
REMARK   77  A    between atoms: _185  and  _186
REMARK   78  A    between atoms: _195  and  _197
REMARK   79  A    between atoms: _197  and  _198
REMARK   80  A    between atoms: _200  and  _202
REMARK   81  A    between atoms: _202  and  _203
REMARK   82  A    between atoms: _202  and  _205
REMARK   83  A    between atoms: _205  and  _206
REMARK   84  A    between atoms: _216  and  _218
REMARK   85  A    between atoms: _218  and  _219
REMARK   86  A    between atoms: _222  and  _224
REMARK   87  A    between atoms: _224  and  _225
REMARK   88  A    between atoms: _228  and  _230
REMARK   89  A    between atoms: _230  and  _231
REMARK   90  A    between atoms: _230  and  _233
REMARK   91  A    between atoms: _233  and  _234
REMARK   92  A    between atoms: _237  and  _239
REMARK   93  A    between atoms: _239  and  _240
REMARK   94  A    between atoms: _239  and  _242
REMARK   95  A    between atoms: _242  and  _243
REMARK   96  A    between atoms: _243  and  _244
REMARK   97  A    between atoms: _249  and  _251
REMARK   98  A    between atoms: _251  and  _252
REMARK   99  A    between atoms: _251  and  _254
REMARK  100  A    between atoms: _254  and  _255
REMARK  101  A    between atoms: _258  and  _260
REMARK  102  A    between atoms: _260  and  _261
REMARK  103  A    between atoms: _260  and  _263
REMARK  104  A    between atoms: _263  and  _264
REMARK  105  A    between atoms: _267  and  _269
REMARK  106  A    between atoms: _269  and  _270
REMARK  107  A    between atoms: _269  and  _272
REMARK  108  A    between atoms: _272  and  _273
REMARK  109  A    between atoms: _276  and  _278
REMARK  110  A    between atoms: _278  and  _279
REMARK  111  A    between atoms: _278  and  _281
REMARK  112  A    between atoms: _281  and  _282
REMARK  113  A    between atoms: _284  and  _286
REMARK  114  A    between atoms: _286  and  _287
REMARK  115  A    between atoms: _286  and  _289
REMARK  116  A    between atoms: _292  and  _294
REMARK  117  A    between atoms: _294  and  _295
REMARK  118  A    between atoms: _294  and  _297
REMARK  119  A    between atoms: _297  and  _298
REMARK  120  A    between atoms: _298  and  _299
REMARK  121  A    between atoms: _299  and  _300
REMARK  122  A    between atoms: _300  and  _301
REMARK  123  A    between atoms: _305  and  _307
REMARK  124  A    between atoms: _307  and  _308
REMARK  125  A    between atoms: _307  and  _310
REMARK  126  A    between atoms: _310  and  _311
REMARK  127  A    between atoms: _322  and  _323
REMARK  128  A    between atoms: _328  and  _330
REMARK  129  A    between atoms: _330  and  _331
REMARK  130  A    between atoms: _330  and  _333
REMARK  131  A    between atoms: _333  and  _334
REMARK  132  A    between atoms: _339  and  _341
REMARK  133  A    between atoms: _341  and  _342
REMARK  134  A    between atoms: _341  and  _344
REMARK  135  A    between atoms: _344  and  _345
REMARK  136  A    between atoms: _348  and  _350
REMARK  137  A    between atoms: _350  and  _351
REMARK  138  A    between atoms: _350  and  _353
REMARK  139  A    between atoms: _356  and  _358
REMARK  140  A    between atoms: _358  and  _359
REMARK  141  A    between atoms: _361  and  _363
REMARK  142  A    between atoms: _363  and  _364
REMARK  143  A    between atoms: _363  and  _366
REMARK  144  A    between atoms: _366  and  _367
REMARK  145  A    between atoms: _367  and  _368
REMARK  146  A    between atoms: _368  and  _369
REMARK  147  A    between atoms: _369  and  _370
REMARK  148  A    between atoms: _374  and  _376
REMARK  149  A    between atoms: _376  and  _377
REMARK  150  A    between atoms: _376  and  _379
REMARK  151  A    between atoms: _379  and  _380
REMARK  152  A    between atoms: _383  and  _385
REMARK  153  A    between atoms: _385  and  _386
REMARK  154  A    between atoms: _389  and  _391
REMARK  155  A    between atoms: _391  and  _392
REMARK  156  A    between atoms: _394  and  _396
REMARK  157  A    between atoms: _396  and  _397
REMARK  158  A    between atoms: _396  and  _399
REMARK  159  A    between atoms: _399  and  _400
REMARK  160  A    between atoms: _403  and  _405
REMARK  161  A    between atoms: _405  and  _406
REMARK  162  A    between atoms: _405  and  _408
REMARK  163  A    between atoms: _408  and  _409
REMARK  164  A    between atoms: _412  and  _414
REMARK  165  A    between atoms: _414  and  _415
REMARK  166  A    between atoms: _418  and  _420
REMARK  167  A    between atoms: _420  and  _421
REMARK  168  A    between atoms: _420  and  _423
REMARK  169  A    between atoms: _423  and  _424
REMARK  170  A    between atoms: _424  and  _425
REMARK  171  A    between atoms: _428  and  _430
REMARK  172  A    between atoms: _430  and  _431
REMARK  173  A    between atoms: _430  and  _433
REMARK  174  A    between atoms: _436  and  _438
REMARK  175  A    between atoms: _438  and  _439
REMARK  176  A    between atoms: _438  and  _441
REMARK  177  A    between atoms: _441  and  _442
REMARK  178  A    between atoms: _445  and  _447
REMARK  179  A    between atoms: _447  and  _448
REMARK  180  A    between atoms: _450  and  _452
REMARK  181  A    between atoms: _452  and  _453
REMARK  182  A    between atoms: _452  and  _455
REMARK  183  A    between atoms: _458  and  _460
REMARK  184  A    between atoms: _460  and  _461
REMARK  185  A    between atoms: _463  and  _465
REMARK  186  A    between atoms: _465  and  _466
REMARK  187  A    between atoms: _465  and  _468
REMARK  188  A    between atoms: _468  and  _469
REMARK  189  A    between atoms: _472  and  _474
REMARK  190  A    between atoms: _474  and  _475
REMARK  191  A    between atoms: _474  and  _477
REMARK  192  A    between atoms: _477  and  _478
REMARK  193  A    between atoms: _483  and  _485
REMARK  194  A    between atoms: _485  and  _486
REMARK  195  A    between atoms: _485  and  _488
REMARK  196  A    between atoms: _491  and  _493
REMARK  197  A    between atoms: _493  and  _494
REMARK  198  A    between atoms: _493  and  _496
REMARK  199  A    between atoms: _496  and  _497
REMARK  200  A    between atoms: _497  and  _498
REMARK  201  A    between atoms: _503  and  _505
REMARK  202  A    between atoms: _505  and  _506
REMARK  203  A    between atoms: _510  and  _511
REMARK  204  A    between atoms: _516  and  _518
REMARK  205  A    between atoms: _518  and  _519
REMARK  206  A    between atoms: _518  and  _521
REMARK  207  A    between atoms: _521  and  _522
REMARK  208  A    between atoms: _522  and  _523
REMARK  209  A    between atoms: _526  and  _528
REMARK  210  A    between atoms: _528  and  _529
REMARK  211  A    between atoms: _528  and  _531
REMARK  212  A    between atoms: _534  and  _536
REMARK  213  A    between atoms: _536  and  _537
REMARK  214  A    between atoms: _536  and  _539
REMARK  215  A    between atoms: _539  and  _540
REMARK  216  A    between atoms: _544  and  _545
REMARK  217  A    between atoms: _550  and  _552
REMARK  218  A    between atoms: _552  and  _553
REMARK  219  A    between atoms: _552  and  _555
REMARK  220  A    between atoms: _555  and  _556
REMARK  221  A    between atoms: _559  and  _561
REMARK  222  A    between atoms: _561  and  _562
REMARK  223  A    between atoms: _565  and  _567
REMARK  224  A    between atoms: _567  and  _568
REMARK  225  A    between atoms: _567  and  _570
REMARK  226  A    between atoms: _570  and  _571
REMARK  227  A    between atoms: _574  and  _576
REMARK  228  A    between atoms: _576  and  _577
REMARK  229  A    between atoms: _576  and  _579
REMARK  230  A    between atoms: _579  and  _580
REMARK  231  A    between atoms: _582  and  _584
REMARK  232  A    between atoms: _584  and  _585
REMARK  233  A    between atoms: _587  and  _589
REMARK  234  A    between atoms: _589  and  _590
REMARK  235  A    between atoms: _589  and  _592
REMARK  236  A    between atoms: _592  and  _593
REMARK  237  A    between atoms: _596  and  _598
REMARK  238  A    between atoms: _598  and  _599
REMARK  239  A    between atoms: _598  and  _601
REMARK                            x       y       z     vdW  Elec       q    Type
REMARK                         _______ _______ _______ _____ _____    ______ ____
ROOT
ATOM      1  O   HOH     1       3.403  -2.110  13.660  0.00  0.00    +0.000 OA
ENDROOT
TORSDOF 0
REMARK  Name = ../refined-set-2016/3rux/3rux_pocket.pdb
REMARK  239 active torsions:
REMARK  status: ('A' for Active; 'I' for Inactive)
REMARK    1  A    between atoms: _1  and  _3
REMARK    2  A    between atoms: _3  and  _4
REMARK    3  A    between atoms: _3  and  _6
REMARK    4  A    between atoms: _6  and  _7
REMARK    5  A    between atoms: _10  and  _12
REMARK    6  A    between atoms: _12  and  _13
REMARK    7  A    between atoms: _15  and  _17
REMARK    8  A    between atoms: _17  and  _18
REMARK    9  A    between atoms: _17  and  _20
REMARK   10  A    between atoms: _20  and  _21
REMARK   11  A    between atoms: _23  and  _25
REMARK   12  A    between atoms: _25  and  _26
REMARK   13  A    between atoms: _25  and  _28
REMARK   14  A    between atoms: _28  and  _29
REMARK   15  A    between atoms: _32  and  _34
REMARK   16  A    between atoms: _34  and  _35
REMARK   17  A    between atoms: _34  and  _37
REMARK   18  A    between atoms: _37  and  _38
REMARK   19  A    between atoms: _43  and  _45
REMARK   20  A    between atoms: _45  and  _46
REMARK   21  A    between atoms: _49  and  _51
REMARK   22  A    between atoms: _51  and  _52
REMARK   23  A    between atoms: _51  and  _54
REMARK   24  A    between atoms: _54  and  _55
REMARK   25  A    between atoms: _58  and  _60
REMARK   26  A    between atoms: _60  and  _61
REMARK   27  A    between atoms: _60  and  _63
REMARK   28  A    between atoms: _63  and  _64
REMARK   29  A    between atoms: _67  and  _69
REMARK   30  A    between atoms: _69  and  _70
REMARK   31  A    between atoms: _69  and  _72
REMARK   32  A    between atoms: _72  and  _73
REMARK   33  A    between atoms: _76  and  _78
REMARK   34  A    between atoms: _78  and  _79
REMARK   35  A    between atoms: _78  and  _81
REMARK   36  A    between atoms: _81  and  _82
REMARK   37  A    between atoms: _85  and  _87
REMARK   38  A    between atoms: _87  and  _88
REMARK   39  A    between atoms: _91  and  _93
REMARK   40  A    between atoms: _93  and  _94
REMARK   41  A    between atoms: _93  and  _96
REMARK   42  A    between atoms: _96  and  _97
REMARK   43  A    between atoms: _97  and  _98
REMARK   44  A    between atoms: _103  and  _105
REMARK   45  A    between atoms: _105  and  _106
REMARK   46  A    between atoms: _105  and  _108
REMARK   47  A    between atoms: _108  and  _109
REMARK   48  A    between atoms: _112  and  _114
REMARK   49  A    between atoms: _114  and  _115
REMARK   50  A    between atoms: _118  and  _120
REMARK   51  A    between atoms: _120  and  _121
REMARK   52  A    between atoms: _123  and  _125
REMARK   53  A    between atoms: _125  and  _126
REMARK   54  A    between atoms: _125  and  _128
REMARK   55  A    between atoms: _128  and  _129
REMARK   56  A    between atoms: _129  and  _130
REMARK   57  A    between atoms: _130  and  _131
REMARK   58  A    between atoms: _140  and  _142
REMARK   59  A    between atoms: _142  and  _143
REMARK   60  A    between atoms: _145  and  _147
REMARK   61  A    between atoms: _147  and  _148
REMARK   62  A    between atoms: _147  and  _150
REMARK   63  A    between atoms: _150  and  _151
REMARK   64  A    between atoms: _151  and  _152
REMARK   65  A    between atoms: _152  and  _153
REMARK   66  A    between atoms: _162  and  _164
REMARK   67  A    between atoms: _164  and  _165
REMARK   68  A    between atoms: _164  and  _167
REMARK   69  A    between atoms: _167  and  _168
REMARK   70  A    between atoms: _173  and  _175
REMARK   71  A    between atoms: _175  and  _176
REMARK   72  A    between atoms: _178  and  _180
REMARK   73  A    between atoms: _180  and  _181
REMARK   74  A    between atoms: _180  and  _183
REMARK   75  A    between atoms: _183  and  _184
REMARK   76  A    between atoms: _184  and  _185
REMARK   77  A    between atoms: _185  and  _186
REMARK   78  A    between atoms: _195  and  _197
REMARK   79  A    between atoms: _197  and  _198
REMARK   80  A    between atoms: _200  and  _202
REMARK   81  A    between atoms: _202  and  _203
REMARK   82  A    between atoms: _202  and  _205
REMARK   83  A    between atoms: _205  and  _206
REMARK   84  A    between atoms: _216  and  _218
REMARK   85  A    between atoms: _218  and  _219
REMARK   86  A    between atoms: _222  and  _224
REMARK   87  A    between atoms: _224  and  _225
REMARK   88  A    between atoms: _228  and  _230
REMARK   89  A    between atoms: _230  and  _231
REMARK   90  A    between atoms: _230  and  _233
REMARK   91  A    between atoms: _233  and  _234
REMARK   92  A    between atoms: _237  and  _239
REMARK   93  A    between atoms: _239  and  _240
REMARK   94  A    between atoms: _239  and  _242
REMARK   95  A    between atoms: _242  and  _243
REMARK   96  A    between atoms: _243  and  _244
REMARK   97  A    between atoms: _249  and  _251
REMARK   98  A    between atoms: _251  and  _252
REMARK   99  A    between atoms: _251  and  _254
REMARK  100  A    between atoms: _254  and  _255
REMARK  101  A    between atoms: _258  and  _260
REMARK  102  A    between atoms: _260  and  _261
REMARK  103  A    between atoms: _260  and  _263
REMARK  104  A    between atoms: _263  and  _264
REMARK  105  A    between atoms: _267  and  _269
REMARK  106  A    between atoms: _269  and  _270
REMARK  107  A    between atoms: _269  and  _272
REMARK  108  A    between atoms: _272  and  _273
REMARK  109  A    between atoms: _276  and  _278
REMARK  110  A    between atoms: _278  and  _279
REMARK  111  A    between atoms: _278  and  _281
REMARK  112  A    between atoms: _281  and  _282
REMARK  113  A    between atoms: _284  and  _286
REMARK  114  A    between atoms: _286  and  _287
REMARK  115  A    between atoms: _286  and  _289
REMARK  116  A    between atoms: _292  and  _294
REMARK  117  A    between atoms: _294  and  _295
REMARK  118  A    between atoms: _294  and  _297
REMARK  119  A    between atoms: _297  and  _298
REMARK  120  A    between atoms: _298  and  _299
REMARK  121  A    between atoms: _299  and  _300
REMARK  122  A    between atoms: _300  and  _301
REMARK  123  A    between atoms: _305  and  _307
REMARK  124  A    between atoms: _307  and  _308
REMARK  125  A    between atoms: _307  and  _310
REMARK  126  A    between atoms: _310  and  _311
REMARK  127  A    between atoms: _322  and  _323
REMARK  128  A    between atoms: _328  and  _330
REMARK  129  A    between atoms: _330  and  _331
REMARK  130  A    between atoms: _330  and  _333
REMARK  131  A    between atoms: _333  and  _334
REMARK  132  A    between atoms: _339  and  _341
REMARK  133  A    between atoms: _341  and  _342
REMARK  134  A    between atoms: _341  and  _344
REMARK  135  A    between atoms: _344  and  _345
REMARK  136  A    between atoms: _348  and  _350
REMARK  137  A    between atoms: _350  and  _351
REMARK  138  A    between atoms: _350  and  _353
REMARK  139  A    between atoms: _356  and  _358
REMARK  140  A    between atoms: _358  and  _359
REMARK  141  A    between atoms: _361  and  _363
REMARK  142  A    between atoms: _363  and  _364
REMARK  143  A    between atoms: _363  and  _366
REMARK  144  A    between atoms: _366  and  _367
REMARK  145  A    between atoms: _367  and  _368
REMARK  146  A    between atoms: _368  and  _369
REMARK  147  A    between atoms: _369  and  _370
REMARK  148  A    between atoms: _374  and  _376
REMARK  149  A    between atoms: _376  and  _377
REMARK  150  A    between atoms: _376  and  _379
REMARK  151  A    between atoms: _379  and  _380
REMARK  152  A    between atoms: _383  and  _385
REMARK  153  A    between atoms: _385  and  _386
REMARK  154  A    between atoms: _389  and  _391
REMARK  155  A    between atoms: _391  and  _392
REMARK  156  A    between atoms: _394  and  _396
REMARK  157  A    between atoms: _396  and  _397
REMARK  158  A    between atoms: _396  and  _399
REMARK  159  A    between atoms: _399  and  _400
REMARK  160  A    between atoms: _403  and  _405
REMARK  161  A    between atoms: _405  and  _406
REMARK  162  A    between atoms: _405  and  _408
REMARK  163  A    between atoms: _408  and  _409
REMARK  164  A    between atoms: _412  and  _414
REMARK  165  A    between atoms: _414  and  _415
REMARK  166  A    between atoms: _418  and  _420
REMARK  167  A    between atoms: _420  and  _421
REMARK  168  A    between atoms: _420  and  _423
REMARK  169  A    between atoms: _423  and  _424
REMARK  170  A    between atoms: _424  and  _425
REMARK  171  A    between atoms: _428  and  _430
REMARK  172  A    between atoms: _430  and  _431
REMARK  173  A    between atoms: _430  and  _433
REMARK  174  A    between atoms: _436  and  _438
REMARK  175  A    between atoms: _438  and  _439
REMARK  176  A    between atoms: _438  and  _441
REMARK  177  A    between atoms: _441  and  _442
REMARK  178  A    between atoms: _445  and  _447
REMARK  179  A    between atoms: _447  and  _448
REMARK  180  A    between atoms: _450  and  _452
REMARK  181  A    between atoms: _452  and  _453
REMARK  182  A    between atoms: _452  and  _455
REMARK  183  A    between atoms: _458  and  _460
REMARK  184  A    between atoms: _460  and  _461
REMARK  185  A    between atoms: _463  and  _465
REMARK  186  A    between atoms: _465  and  _466
REMARK  187  A    between atoms: _465  and  _468
REMARK  188  A    between atoms: _468  and  _469
REMARK  189  A    between atoms: _472  and  _474
REMARK  190  A    between atoms: _474  and  _475
REMARK  191  A    between atoms: _474  and  _477
REMARK  192  A    between atoms: _477  and  _478
REMARK  193  A    between atoms: _483  and  _485
REMARK  194  A    between atoms: _485  and  _486
REMARK  195  A    between atoms: _485  and  _488
REMARK  196  A    between atoms: _491  and  _493
REMARK  197  A    between atoms: _493  and  _494
REMARK  198  A    between atoms: _493  and  _496
REMARK  199  A    between atoms: _496  and  _497
REMARK  200  A    between atoms: _497  and  _498
REMARK  201  A    between atoms: _503  and  _505
REMARK  202  A    between atoms: _505  and  _506
REMARK  203  A    between atoms: _510  and  _511
REMARK  204  A    between atoms: _516  and  _518
REMARK  205  A    between atoms: _518  and  _519
REMARK  206  A    between atoms: _518  and  _521
REMARK  207  A    between atoms: _521  and  _522
REMARK  208  A    between atoms: _522  and  _523
REMARK  209  A    between atoms: _526  and  _528
REMARK  210  A    between atoms: _528  and  _529
REMARK  211  A    between atoms: _528  and  _531
REMARK  212  A    between atoms: _534  and  _536
REMARK  213  A    between atoms: _536  and  _537
REMARK  214  A    between atoms: _536  and  _539
REMARK  215  A    between atoms: _539  and  _540
REMARK  216  A    between atoms: _544  and  _545
REMARK  217  A    between atoms: _550  and  _552
REMARK  218  A    between atoms: _552  and  _553
REMARK  219  A    between atoms: _552  and  _555
REMARK  220  A    between atoms: _555  and  _556
REMARK  221  A    between atoms: _559  and  _561
REMARK  222  A    between atoms: _561  and  _562
REMARK  223  A    between atoms: _565  and  _567
REMARK  224  A    between atoms: _567  and  _568
REMARK  225  A    between atoms: _567  and  _570
REMARK  226  A    between atoms: _570  and  _571
REMARK  227  A    between atoms: _574  and  _576
REMARK  228  A    between atoms: _576  and  _577
REMARK  229  A    between atoms: _576  and  _579
REMARK  230  A    between atoms: _579  and  _580
REMARK  231  A    between atoms: _582  and  _584
REMARK  232  A    between atoms: _584  and  _585
REMARK  233  A    between atoms: _587  and  _589
REMARK  234  A    between atoms: _589  and  _590
REMARK  235  A    between atoms: _589  and  _592
REMARK  236  A    between atoms: _592  and  _593
REMARK  237  A    between atoms: _596  and  _598
REMARK  238  A    between atoms: _598  and  _599
REMARK  239  A    between atoms: _598  and  _601
REMARK                            x       y       z     vdW  Elec       q    Type
REMARK                         _______ _______ _______ _____ _____    ______ ____
ROOT
ATOM      1  O   HOH     1      -2.194   1.475   5.523  0.00  0.00    +0.000 OA
ENDROOT
TORSDOF 0
REMARK  Name = ../refined-set-2016/3rux/3rux_pocket.pdb
REMARK  239 active torsions:
REMARK  status: ('A' for Active; 'I' for Inactive)
REMARK    1  A    between atoms: _1  and  _3
REMARK    2  A    between atoms: _3  and  _4
REMARK    3  A    between atoms: _3  and  _6
REMARK    4  A    between atoms: _6  and  _7
REMARK    5  A    between atoms: _10  and  _12
REMARK    6  A    between atoms: _12  and  _13
REMARK    7  A    between atoms: _15  and  _17
REMARK    8  A    between atoms: _17  and  _18
REMARK    9  A    between atoms: _17  and  _20
REMARK   10  A    between atoms: _20  and  _21
REMARK   11  A    between atoms: _23  and  _25
REMARK   12  A    between atoms: _25  and  _26
REMARK   13  A    between atoms: _25  and  _28
REMARK   14  A    between atoms: _28  and  _29
REMARK   15  A    between atoms: _32  and  _34
REMARK   16  A    between atoms: _34  and  _35
REMARK   17  A    between atoms: _34  and  _37
REMARK   18  A    between atoms: _37  and  _38
REMARK   19  A    between atoms: _43  and  _45
REMARK   20  A    between atoms: _45  and  _46
REMARK   21  A    between atoms: _49  and  _51
REMARK   22  A    between atoms: _51  and  _52
REMARK   23  A    between atoms: _51  and  _54
REMARK   24  A    between atoms: _54  and  _55
REMARK   25  A    between atoms: _58  and  _60
REMARK   26  A    between atoms: _60  and  _61
REMARK   27  A    between atoms: _60  and  _63
REMARK   28  A    between atoms: _63  and  _64
REMARK   29  A    between atoms: _67  and  _69
REMARK   30  A    between atoms: _69  and  _70
REMARK   31  A    between atoms: _69  and  _72
REMARK   32  A    between atoms: _72  and  _73
REMARK   33  A    between atoms: _76  and  _78
REMARK   34  A    between atoms: _78  and  _79
REMARK   35  A    between atoms: _78  and  _81
REMARK   36  A    between atoms: _81  and  _82
REMARK   37  A    between atoms: _85  and  _87
REMARK   38  A    between atoms: _87  and  _88
REMARK   39  A    between atoms: _91  and  _93
REMARK   40  A    between atoms: _93  and  _94
REMARK   41  A    between atoms: _93  and  _96
REMARK   42  A    between atoms: _96  and  _97
REMARK   43  A    between atoms: _97  and  _98
REMARK   44  A    between atoms: _103  and  _105
REMARK   45  A    between atoms: _105  and  _106
REMARK   46  A    between atoms: _105  and  _108
REMARK   47  A    between atoms: _108  and  _109
REMARK   48  A    between atoms: _112  and  _114
REMARK   49  A    between atoms: _114  and  _115
REMARK   50  A    between atoms: _118  and  _120
REMARK   51  A    between atoms: _120  and  _121
REMARK   52  A    between atoms: _123  and  _125
REMARK   53  A    between atoms: _125  and  _126
REMARK   54  A    between atoms: _125  and  _128
REMARK   55  A    between atoms: _128  and  _129
REMARK   56  A    between atoms: _129  and  _130
REMARK   57  A    between atoms: _130  and  _131
REMARK   58  A    between atoms: _140  and  _142
REMARK   59  A    between atoms: _142  and  _143
REMARK   60  A    between atoms: _145  and  _147
REMARK   61  A    between atoms: _147  and  _148
REMARK   62  A    between atoms: _147  and  _150
REMARK   63  A    between atoms: _150  and  _151
REMARK   64  A    between atoms: _151  and  _152
REMARK   65  A    between atoms: _152  and  _153
REMARK   66  A    between atoms: _162  and  _164
REMARK   67  A    between atoms: _164  and  _165
REMARK   68  A    between atoms: _164  and  _167
REMARK   69  A    between atoms: _167  and  _168
REMARK   70  A    between atoms: _173  and  _175
REMARK   71  A    between atoms: _175  and  _176
REMARK   72  A    between atoms: _178  and  _180
REMARK   73  A    between atoms: _180  and  _181
REMARK   74  A    between atoms: _180  and  _183
REMARK   75  A    between atoms: _183  and  _184
REMARK   76  A    between atoms: _184  and  _185
REMARK   77  A    between atoms: _185  and  _186
REMARK   78  A    between atoms: _195  and  _197
REMARK   79  A    between atoms: _197  and  _198
REMARK   80  A    between atoms: _200  and  _202
REMARK   81  A    between atoms: _202  and  _203
REMARK   82  A    between atoms: _202  and  _205
REMARK   83  A    between atoms: _205  and  _206
REMARK   84  A    between atoms: _216  and  _218
REMARK   85  A    between atoms: _218  and  _219
REMARK   86  A    between atoms: _222  and  _224
REMARK   87  A    between atoms: _224  and  _225
REMARK   88  A    between atoms: _228  and  _230
REMARK   89  A    between atoms: _230  and  _231
REMARK   90  A    between atoms: _230  and  _233
REMARK   91  A    between atoms: _233  and  _234
REMARK   92  A    between atoms: _237  and  _239
REMARK   93  A    between atoms: _239  and  _240
REMARK   94  A    between atoms: _239  and  _242
REMARK   95  A    between atoms: _242  and  _243
REMARK   96  A    between atoms: _243  and  _244
REMARK   97  A    between atoms: _249  and  _251
REMARK   98  A    between atoms: _251  and  _252
REMARK   99  A    between atoms: _251  and  _254
REMARK  100  A    between atoms: _254  and  _255
REMARK  101  A    between atoms: _258  and  _260
REMARK  102  A    between atoms: _260  and  _261
REMARK  103  A    between atoms: _260  and  _263
REMARK  104  A    between atoms: _263  and  _264
REMARK  105  A    between atoms: _267  and  _269
REMARK  106  A    between atoms: _269  and  _270
REMARK  107  A    between atoms: _269  and  _272
REMARK  108  A    between atoms: _272  and  _273
REMARK  109  A    between atoms: _276  and  _278
REMARK  110  A    between atoms: _278  and  _279
REMARK  111  A    between atoms: _278  and  _281
REMARK  112  A    between atoms: _281  and  _282
REMARK  113  A    between atoms: _284  and  _286
REMARK  114  A    between atoms: _286  and  _287
REMARK  115  A    between atoms: _286  and  _289
REMARK  116  A    between atoms: _292  and  _294
REMARK  117  A    between atoms: _294  and  _295
REMARK  118  A    between atoms: _294  and  _297
REMARK  119  A    between atoms: _297  and  _298
REMARK  120  A    between atoms: _298  and  _299
REMARK  121  A    between atoms: _299  and  _300
REMARK  122  A    between atoms: _300  and  _301
REMARK  123  A    between atoms: _305  and  _307
REMARK  124  A    between atoms: _307  and  _308
REMARK  125  A    between atoms: _307  and  _310
REMARK  126  A    between atoms: _310  and  _311
REMARK  127  A    between atoms: _322  and  _323
REMARK  128  A    between atoms: _328  and  _330
REMARK  129  A    between atoms: _330  and  _331
REMARK  130  A    between atoms: _330  and  _333
REMARK  131  A    between atoms: _333  and  _334
REMARK  132  A    between atoms: _339  and  _341
REMARK  133  A    between atoms: _341  and  _342
REMARK  134  A    between atoms: _341  and  _344
REMARK  135  A    between atoms: _344  and  _345
REMARK  136  A    between atoms: _348  and  _350
REMARK  137  A    between atoms: _350  and  _351
REMARK  138  A    between atoms: _350  and  _353
REMARK  139  A    between atoms: _356  and  _358
REMARK  140  A    between atoms: _358  and  _359
REMARK  141  A    between atoms: _361  and  _363
REMARK  142  A    between atoms: _363  and  _364
REMARK  143  A    between atoms: _363  and  _366
REMARK  144  A    between atoms: _366  and  _367
REMARK  145  A    between atoms: _367  and  _368
REMARK  146  A    between atoms: _368  and  _369
REMARK  147  A    between atoms: _369  and  _370
REMARK  148  A    between atoms: _374  and  _376
REMARK  149  A    between atoms: _376  and  _377
REMARK  150  A    between atoms: _376  and  _379
REMARK  151  A    between atoms: _379  and  _380
REMARK  152  A    between atoms: _383  and  _385
REMARK  153  A    between atoms: _385  and  _386
REMARK  154  A    between atoms: _389  and  _391
REMARK  155  A    between atoms: _391  and  _392
REMARK  156  A    between atoms: _394  and  _396
REMARK  157  A    between atoms: _396  and  _397
REMARK  158  A    between atoms: _396  and  _399
REMARK  159  A    between atoms: _399  and  _400
REMARK  160  A    between atoms: _403  and  _405
REMARK  161  A    between atoms: _405  and  _406
REMARK  162  A    between atoms: _405  and  _408
REMARK  163  A    between atoms: _408  and  _409
REMARK  164  A    between atoms: _412  and  _414
REMARK  165  A    between atoms: _414  and  _415
REMARK  166  A    between atoms: _418  and  _420
REMARK  167  A    between atoms: _420  and  _421
REMARK  168  A    between atoms: _420  and  _423
REMARK  169  A    between atoms: _423  and  _424
REMARK  170  A    between atoms: _424  and  _425
REMARK  171  A    between atoms: _428  and  _430
REMARK  172  A    between atoms: _430  and  _431
REMARK  173  A    between atoms: _430  and  _433
REMARK  174  A    between atoms: _436  and  _438
REMARK  175  A    between atoms: _438  and  _439
REMARK  176  A    between atoms: _438  and  _441
REMARK  177  A    between atoms: _441  and  _442
REMARK  178  A    between atoms: _445  and  _447
REMARK  179  A    between atoms: _447  and  _448
REMARK  180  A    between atoms: _450  and  _452
REMARK  181  A    between atoms: _452  and  _453
REMARK  182  A    between atoms: _452  and  _455
REMARK  183  A    between atoms: _458  and  _460
REMARK  184  A    between atoms: _460  and  _461
REMARK  185  A    between atoms: _463  and  _465
REMARK  186  A    between atoms: _465  and  _466
REMARK  187  A    between atoms: _465  and  _468
REMARK  188  A    between atoms: _468  and  _469
REMARK  189  A    between atoms: _472  and  _474
REMARK  190  A    between atoms: _474  and  _475
REMARK  191  A    between atoms: _474  and  _477
REMARK  192  A    between atoms: _477  and  _478
REMARK  193  A    between atoms: _483  and  _485
REMARK  194  A    between atoms: _485  and  _486
REMARK  195  A    between atoms: _485  and  _488
REMARK  196  A    between atoms: _491  and  _493
REMARK  197  A    between atoms: _493  and  _494
REMARK  198  A    between atoms: _493  and  _496
REMARK  199  A    between atoms: _496  and  _497
REMARK  200  A    between atoms: _497  and  _498
REMARK  201  A    between atoms: _503  and  _505
REMARK  202  A    between atoms: _505  and  _506
REMARK  203  A    between atoms: _510  and  _511
REMARK  204  A    between atoms: _516  and  _518
REMARK  205  A    between atoms: _518  and  _519
REMARK  206  A    between atoms: _518  and  _521
REMARK  207  A    between atoms: _521  and  _522
REMARK  208  A    between atoms: _522  and  _523
REMARK  209  A    between atoms: _526  and  _528
REMARK  210  A    between atoms: _528  and  _529
REMARK  211  A    between atoms: _528  and  _531
REMARK  212  A    between atoms: _534  and  _536
REMARK  213  A    between atoms: _536  and  _537
REMARK  214  A    between atoms: _536  and  _539
REMARK  215  A    between atoms: _539  and  _540
REMARK  216  A    between atoms: _544  and  _545
REMARK  217  A    between atoms: _550  and  _552
REMARK  218  A    between atoms: _552  and  _553
REMARK  219  A    between atoms: _552  and  _555
REMARK  220  A    between atoms: _555  and  _556
REMARK  221  A    between atoms: _559  and  _561
REMARK  222  A    between atoms: _561  and  _562
REMARK  223  A    between atoms: _565  and  _567
REMARK  224  A    between atoms: _567  and  _568
REMARK  225  A    between atoms: _567  and  _570
REMARK  226  A    between atoms: _570  and  _571
REMARK  227  A    between atoms: _574  and  _576
REMARK  228  A    between atoms: _576  and  _577
REMARK  229  A    between atoms: _576  and  _579
REMARK  230  A    between atoms: _579  and  _580
REMARK  231  A    between atoms: _582  and  _584
REMARK  232  A    between atoms: _584  and  _585
REMARK  233  A    between atoms: _587  and  _589
REMARK  234  A    between atoms: _589  and  _590
REMARK  235  A    between atoms: _589  and  _592
REMARK  236  A    between atoms: _592  and  _593
REMARK  237  A    between atoms: _596  and  _598
REMARK  238  A    between atoms: _598  and  _599
REMARK  239  A    between atoms: _598  and  _601
REMARK                            x       y       z     vdW  Elec       q    Type
REMARK                         _______ _______ _______ _____ _____    ______ ____
ROOT
ATOM      1  O   HOH     1     -11.277   2.003  16.021  0.00  0.00    +0.000 OA
ENDROOT
TORSDOF 0
REMARK  Name = ../refined-set-2016/3rux/3rux_pocket.pdb
REMARK  239 active torsions:
REMARK  status: ('A' for Active; 'I' for Inactive)
REMARK    1  A    between atoms: _1  and  _3
REMARK    2  A    between atoms: _3  and  _4
REMARK    3  A    between atoms: _3  and  _6
REMARK    4  A    between atoms: _6  and  _7
REMARK    5  A    between atoms: _10  and  _12
REMARK    6  A    between atoms: _12  and  _13
REMARK    7  A    between atoms: _15  and  _17
REMARK    8  A    between atoms: _17  and  _18
REMARK    9  A    between atoms: _17  and  _20
REMARK   10  A    between atoms: _20  and  _21
REMARK   11  A    between atoms: _23  and  _25
REMARK   12  A    between atoms: _25  and  _26
REMARK   13  A    between atoms: _25  and  _28
REMARK   14  A    between atoms: _28  and  _29
REMARK   15  A    between atoms: _32  and  _34
REMARK   16  A    between atoms: _34  and  _35
REMARK   17  A    between atoms: _34  and  _37
REMARK   18  A    between atoms: _37  and  _38
REMARK   19  A    between atoms: _43  and  _45
REMARK   20  A    between atoms: _45  and  _46
REMARK   21  A    between atoms: _49  and  _51
REMARK   22  A    between atoms: _51  and  _52
REMARK   23  A    between atoms: _51  and  _54
REMARK   24  A    between atoms: _54  and  _55
REMARK   25  A    between atoms: _58  and  _60
REMARK   26  A    between atoms: _60  and  _61
REMARK   27  A    between atoms: _60  and  _63
REMARK   28  A    between atoms: _63  and  _64
REMARK   29  A    between atoms: _67  and  _69
REMARK   30  A    between atoms: _69  and  _70
REMARK   31  A    between atoms: _69  and  _72
REMARK   32  A    between atoms: _72  and  _73
REMARK   33  A    between atoms: _76  and  _78
REMARK   34  A    between atoms: _78  and  _79
REMARK   35  A    between atoms: _78  and  _81
REMARK   36  A    between atoms: _81  and  _82
REMARK   37  A    between atoms: _85  and  _87
REMARK   38  A    between atoms: _87  and  _88
REMARK   39  A    between atoms: _91  and  _93
REMARK   40  A    between atoms: _93  and  _94
REMARK   41  A    between atoms: _93  and  _96
REMARK   42  A    between atoms: _96  and  _97
REMARK   43  A    between atoms: _97  and  _98
REMARK   44  A    between atoms: _103  and  _105
REMARK   45  A    between atoms: _105  and  _106
REMARK   46  A    between atoms: _105  and  _108
REMARK   47  A    between atoms: _108  and  _109
REMARK   48  A    between atoms: _112  and  _114
REMARK   49  A    between atoms: _114  and  _115
REMARK   50  A    between atoms: _118  and  _120
REMARK   51  A    between atoms: _120  and  _121
REMARK   52  A    between atoms: _123  and  _125
REMARK   53  A    between atoms: _125  and  _126
REMARK   54  A    between atoms: _125  and  _128
REMARK   55  A    between atoms: _128  and  _129
REMARK   56  A    between atoms: _129  and  _130
REMARK   57  A    between atoms: _130  and  _131
REMARK   58  A    between atoms: _140  and  _142
REMARK   59  A    between atoms: _142  and  _143
REMARK   60  A    between atoms: _145  and  _147
REMARK   61  A    between atoms: _147  and  _148
REMARK   62  A    between atoms: _147  and  _150
REMARK   63  A    between atoms: _150  and  _151
REMARK   64  A    between atoms: _151  and  _152
REMARK   65  A    between atoms: _152  and  _153
REMARK   66  A    between atoms: _162  and  _164
REMARK   67  A    between atoms: _164  and  _165
REMARK   68  A    between atoms: _164  and  _167
REMARK   69  A    between atoms: _167  and  _168
REMARK   70  A    between atoms: _173  and  _175
REMARK   71  A    between atoms: _175  and  _176
REMARK   72  A    between atoms: _178  and  _180
REMARK   73  A    between atoms: _180  and  _181
REMARK   74  A    between atoms: _180  and  _183
REMARK   75  A    between atoms: _183  and  _184
REMARK   76  A    between atoms: _184  and  _185
REMARK   77  A    between atoms: _185  and  _186
REMARK   78  A    between atoms: _195  and  _197
REMARK   79  A    between atoms: _197  and  _198
REMARK   80  A    between atoms: _200  and  _202
REMARK   81  A    between atoms: _202  and  _203
REMARK   82  A    between atoms: _202  and  _205
REMARK   83  A    between atoms: _205  and  _206
REMARK   84  A    between atoms: _216  and  _218
REMARK   85  A    between atoms: _218  and  _219
REMARK   86  A    between atoms: _222  and  _224
REMARK   87  A    between atoms: _224  and  _225
REMARK   88  A    between atoms: _228  and  _230
REMARK   89  A    between atoms: _230  and  _231
REMARK   90  A    between atoms: _230  and  _233
REMARK   91  A    between atoms: _233  and  _234
REMARK   92  A    between atoms: _237  and  _239
REMARK   93  A    between atoms: _239  and  _240
REMARK   94  A    between atoms: _239  and  _242
REMARK   95  A    between atoms: _242  and  _243
REMARK   96  A    between atoms: _243  and  _244
REMARK   97  A    between atoms: _249  and  _251
REMARK   98  A    between atoms: _251  and  _252
REMARK   99  A    between atoms: _251  and  _254
REMARK  100  A    between atoms: _254  and  _255
REMARK  101  A    between atoms: _258  and  _260
REMARK  102  A    between atoms: _260  and  _261
REMARK  103  A    between atoms: _260  and  _263
REMARK  104  A    between atoms: _263  and  _264
REMARK  105  A    between atoms: _267  and  _269
REMARK  106  A    between atoms: _269  and  _270
REMARK  107  A    between atoms: _269  and  _272
REMARK  108  A    between atoms: _272  and  _273
REMARK  109  A    between atoms: _276  and  _278
REMARK  110  A    between atoms: _278  and  _279
REMARK  111  A    between atoms: _278  and  _281
REMARK  112  A    between atoms: _281  and  _282
REMARK  113  A    between atoms: _284  and  _286
REMARK  114  A    between atoms: _286  and  _287
REMARK  115  A    between atoms: _286  and  _289
REMARK  116  A    between atoms: _292  and  _294
REMARK  117  A    between atoms: _294  and  _295
REMARK  118  A    between atoms: _294  and  _297
REMARK  119  A    between atoms: _297  and  _298
REMARK  120  A    between atoms: _298  and  _299
REMARK  121  A    between atoms: _299  and  _300
REMARK  122  A    between atoms: _300  and  _301
REMARK  123  A    between atoms: _305  and  _307
REMARK  124  A    between atoms: _307  and  _308
REMARK  125  A    between atoms: _307  and  _310
REMARK  126  A    between atoms: _310  and  _311
REMARK  127  A    between atoms: _322  and  _323
REMARK  128  A    between atoms: _328  and  _330
REMARK  129  A    between atoms: _330  and  _331
REMARK  130  A    between atoms: _330  and  _333
REMARK  131  A    between atoms: _333  and  _334
REMARK  132  A    between atoms: _339  and  _341
REMARK  133  A    between atoms: _341  and  _342
REMARK  134  A    between atoms: _341  and  _344
REMARK  135  A    between atoms: _344  and  _345
REMARK  136  A    between atoms: _348  and  _350
REMARK  137  A    between atoms: _350  and  _351
REMARK  138  A    between atoms: _350  and  _353
REMARK  139  A    between atoms: _356  and  _358
REMARK  140  A    between atoms: _358  and  _359
REMARK  141  A    between atoms: _361  and  _363
REMARK  142  A    between atoms: _363  and  _364
REMARK  143  A    between atoms: _363  and  _366
REMARK  144  A    between atoms: _366  and  _367
REMARK  145  A    between atoms: _367  and  _368
REMARK  146  A    between atoms: _368  and  _369
REMARK  147  A    between atoms: _369  and  _370
REMARK  148  A    between atoms: _374  and  _376
REMARK  149  A    between atoms: _376  and  _377
REMARK  150  A    between atoms: _376  and  _379
REMARK  151  A    between atoms: _379  and  _380
REMARK  152  A    between atoms: _383  and  _385
REMARK  153  A    between atoms: _385  and  _386
REMARK  154  A    between atoms: _389  and  _391
REMARK  155  A    between atoms: _391  and  _392
REMARK  156  A    between atoms: _394  and  _396
REMARK  157  A    between atoms: _396  and  _397
REMARK  158  A    between atoms: _396  and  _399
REMARK  159  A    between atoms: _399  and  _400
REMARK  160  A    between atoms: _403  and  _405
REMARK  161  A    between atoms: _405  and  _406
REMARK  162  A    between atoms: _405  and  _408
REMARK  163  A    between atoms: _408  and  _409
REMARK  164  A    between atoms: _412  and  _414
REMARK  165  A    between atoms: _414  and  _415
REMARK  166  A    between atoms: _418  and  _420
REMARK  167  A    between atoms: _420  and  _421
REMARK  168  A    between atoms: _420  and  _423
REMARK  169  A    between atoms: _423  and  _424
REMARK  170  A    between atoms: _424  and  _425
REMARK  171  A    between atoms: _428  and  _430
REMARK  172  A    between atoms: _430  and  _431
REMARK  173  A    between atoms: _430  and  _433
REMARK  174  A    between atoms: _436  and  _438
REMARK  175  A    between atoms: _438  and  _439
REMARK  176  A    between atoms: _438  and  _441
REMARK  177  A    between atoms: _441  and  _442
REMARK  178  A    between atoms: _445  and  _447
REMARK  179  A    between atoms: _447  and  _448
REMARK  180  A    between atoms: _450  and  _452
REMARK  181  A    between atoms: _452  and  _453
REMARK  182  A    between atoms: _452  and  _455
REMARK  183  A    between atoms: _458  and  _460
REMARK  184  A    between atoms: _460  and  _461
REMARK  185  A    between atoms: _463  and  _465
REMARK  186  A    between atoms: _465  and  _466
REMARK  187  A    between atoms: _465  and  _468
REMARK  188  A    between atoms: _468  and  _469
REMARK  189  A    between atoms: _472  and  _474
REMARK  190  A    between atoms: _474  and  _475
REMARK  191  A    between atoms: _474  and  _477
REMARK  192  A    between atoms: _477  and  _478
REMARK  193  A    between atoms: _483  and  _485
REMARK  194  A    between atoms: _485  and  _486
REMARK  195  A    between atoms: _485  and  _488
REMARK  196  A    between atoms: _491  and  _493
REMARK  197  A    between atoms: _493  and  _494
REMARK  198  A    between atoms: _493  and  _496
REMARK  199  A    between atoms: _496  and  _497
REMARK  200  A    between atoms: _497  and  _498
REMARK  201  A    between atoms: _503  and  _505
REMARK  202  A    between atoms: _505  and  _506
REMARK  203  A    between atoms: _510  and  _511
REMARK  204  A    between atoms: _516  and  _518
REMARK  205  A    between atoms: _518  and  _519
REMARK  206  A    between atoms: _518  and  _521
REMARK  207  A    between atoms: _521  and  _522
REMARK  208  A    between atoms: _522  and  _523
REMARK  209  A    between atoms: _526  and  _528
REMARK  210  A    between atoms: _528  and  _529
REMARK  211  A    between atoms: _528  and  _531
REMARK  212  A    between atoms: _534  and  _536
REMARK  213  A    between atoms: _536  and  _537
REMARK  214  A    between atoms: _536  and  _539
REMARK  215  A    between atoms: _539  and  _540
REMARK  216  A    between atoms: _544  and  _545
REMARK  217  A    between atoms: _550  and  _552
REMARK  218  A    between atoms: _552  and  _553
REMARK  219  A    between atoms: _552  and  _555
REMARK  220  A    between atoms: _555  and  _556
REMARK  221  A    between atoms: _559  and  _561
REMARK  222  A    between atoms: _561  and  _562
REMARK  223  A    between atoms: _565  and  _567
REMARK  224  A    between atoms: _567  and  _568
REMARK  225  A    between atoms: _567  and  _570
REMARK  226  A    between atoms: _570  and  _571
REMARK  227  A    between atoms: _574  and  _576
REMARK  228  A    between atoms: _576  and  _577
REMARK  229  A    between atoms: _576  and  _579
REMARK  230  A    between atoms: _579  and  _580
REMARK  231  A    between atoms: _582  and  _584
REMARK  232  A    between atoms: _584  and  _585
REMARK  233  A    between atoms: _587  and  _589
REMARK  234  A    between atoms: _589  and  _590
REMARK  235  A    between atoms: _589  and  _592
REMARK  236  A    between atoms: _592  and  _593
REMARK  237  A    between atoms: _596  and  _598
REMARK  238  A    between atoms: _598  and  _599
REMARK  239  A    between atoms: _598  and  _601
REMARK                            x       y       z     vdW  Elec       q    Type
REMARK                         _______ _______ _______ _____ _____    ______ ____
ROOT
ATOM      1  O   HOH     1      -3.246   8.458   8.678  0.00  0.00    +0.000 OA
ENDROOT
TORSDOF 0
REMARK  Name = ../refined-set-2016/3rux/3rux_pocket.pdb
REMARK  239 active torsions:
REMARK  status: ('A' for Active; 'I' for Inactive)
REMARK    1  A    between atoms: _1  and  _3
REMARK    2  A    between atoms: _3  and  _4
REMARK    3  A    between atoms: _3  and  _6
REMARK    4  A    between atoms: _6  and  _7
REMARK    5  A    between atoms: _10  and  _12
REMARK    6  A    between atoms: _12  and  _13
REMARK    7  A    between atoms: _15  and  _17
REMARK    8  A    between atoms: _17  and  _18
REMARK    9  A    between atoms: _17  and  _20
REMARK   10  A    between atoms: _20  and  _21
REMARK   11  A    between atoms: _23  and  _25
REMARK   12  A    between atoms: _25  and  _26
REMARK   13  A    between atoms: _25  and  _28
REMARK   14  A    between atoms: _28  and  _29
REMARK   15  A    between atoms: _32  and  _34
REMARK   16  A    between atoms: _34  and  _35
REMARK   17  A    between atoms: _34  and  _37
REMARK   18  A    between atoms: _37  and  _38
REMARK   19  A    between atoms: _43  and  _45
REMARK   20  A    between atoms: _45  and  _46
REMARK   21  A    between atoms: _49  and  _51
REMARK   22  A    between atoms: _51  and  _52
REMARK   23  A    between atoms: _51  and  _54
REMARK   24  A    between atoms: _54  and  _55
REMARK   25  A    between atoms: _58  and  _60
REMARK   26  A    between atoms: _60  and  _61
REMARK   27  A    between atoms: _60  and  _63
REMARK   28  A    between atoms: _63  and  _64
REMARK   29  A    between atoms: _67  and  _69
REMARK   30  A    between atoms: _69  and  _70
REMARK   31  A    between atoms: _69  and  _72
REMARK   32  A    between atoms: _72  and  _73
REMARK   33  A    between atoms: _76  and  _78
REMARK   34  A    between atoms: _78  and  _79
REMARK   35  A    between atoms: _78  and  _81
REMARK   36  A    between atoms: _81  and  _82
REMARK   37  A    between atoms: _85  and  _87
REMARK   38  A    between atoms: _87  and  _88
REMARK   39  A    between atoms: _91  and  _93
REMARK   40  A    between atoms: _93  and  _94
REMARK   41  A    between atoms: _93  and  _96
REMARK   42  A    between atoms: _96  and  _97
REMARK   43  A    between atoms: _97  and  _98
REMARK   44  A    between atoms: _103  and  _105
REMARK   45  A    between atoms: _105  and  _106
REMARK   46  A    between atoms: _105  and  _108
REMARK   47  A    between atoms: _108  and  _109
REMARK   48  A    between atoms: _112  and  _114
REMARK   49  A    between atoms: _114  and  _115
REMARK   50  A    between atoms: _118  and  _120
REMARK   51  A    between atoms: _120  and  _121
REMARK   52  A    between atoms: _123  and  _125
REMARK   53  A    between atoms: _125  and  _126
REMARK   54  A    between atoms: _125  and  _128
REMARK   55  A    between atoms: _128  and  _129
REMARK   56  A    between atoms: _129  and  _130
REMARK   57  A    between atoms: _130  and  _131
REMARK   58  A    between atoms: _140  and  _142
REMARK   59  A    between atoms: _142  and  _143
REMARK   60  A    between atoms: _145  and  _147
REMARK   61  A    between atoms: _147  and  _148
REMARK   62  A    between atoms: _147  and  _150
REMARK   63  A    between atoms: _150  and  _151
REMARK   64  A    between atoms: _151  and  _152
REMARK   65  A    between atoms: _152  and  _153
REMARK   66  A    between atoms: _162  and  _164
REMARK   67  A    between atoms: _164  and  _165
REMARK   68  A    between atoms: _164  and  _167
REMARK   69  A    between atoms: _167  and  _168
REMARK   70  A    between atoms: _173  and  _175
REMARK   71  A    between atoms: _175  and  _176
REMARK   72  A    between atoms: _178  and  _180
REMARK   73  A    between atoms: _180  and  _181
REMARK   74  A    between atoms: _180  and  _183
REMARK   75  A    between atoms: _183  and  _184
REMARK   76  A    between atoms: _184  and  _185
REMARK   77  A    between atoms: _185  and  _186
REMARK   78  A    between atoms: _195  and  _197
REMARK   79  A    between atoms: _197  and  _198
REMARK   80  A    between atoms: _200  and  _202
REMARK   81  A    between atoms: _202  and  _203
REMARK   82  A    between atoms: _202  and  _205
REMARK   83  A    between atoms: _205  and  _206
REMARK   84  A    between atoms: _216  and  _218
REMARK   85  A    between atoms: _218  and  _219
REMARK   86  A    between atoms: _222  and  _224
REMARK   87  A    between atoms: _224  and  _225
REMARK   88  A    between atoms: _228  and  _230
REMARK   89  A    between atoms: _230  and  _231
REMARK   90  A    between atoms: _230  and  _233
REMARK   91  A    between atoms: _233  and  _234
REMARK   92  A    between atoms: _237  and  _239
REMARK   93  A    between atoms: _239  and  _240
REMARK   94  A    between atoms: _239  and  _242
REMARK   95  A    between atoms: _242  and  _243
REMARK   96  A    between atoms: _243  and  _244
REMARK   97  A    between atoms: _249  and  _251
REMARK   98  A    between atoms: _251  and  _252
REMARK   99  A    between atoms: _251  and  _254
REMARK  100  A    between atoms: _254  and  _255
REMARK  101  A    between atoms: _258  and  _260
REMARK  102  A    between atoms: _260  and  _261
REMARK  103  A    between atoms: _260  and  _263
REMARK  104  A    between atoms: _263  and  _264
REMARK  105  A    between atoms: _267  and  _269
REMARK  106  A    between atoms: _269  and  _270
REMARK  107  A    between atoms: _269  and  _272
REMARK  108  A    between atoms: _272  and  _273
REMARK  109  A    between atoms: _276  and  _278
REMARK  110  A    between atoms: _278  and  _279
REMARK  111  A    between atoms: _278  and  _281
REMARK  112  A    between atoms: _281  and  _282
REMARK  113  A    between atoms: _284  and  _286
REMARK  114  A    between atoms: _286  and  _287
REMARK  115  A    between atoms: _286  and  _289
REMARK  116  A    between atoms: _292  and  _294
REMARK  117  A    between atoms: _294  and  _295
REMARK  118  A    between atoms: _294  and  _297
REMARK  119  A    between atoms: _297  and  _298
REMARK  120  A    between atoms: _298  and  _299
REMARK  121  A    between atoms: _299  and  _300
REMARK  122  A    between atoms: _300  and  _301
REMARK  123  A    between atoms: _305  and  _307
REMARK  124  A    between atoms: _307  and  _308
REMARK  125  A    between atoms: _307  and  _310
REMARK  126  A    between atoms: _310  and  _311
REMARK  127  A    between atoms: _322  and  _323
REMARK  128  A    between atoms: _328  and  _330
REMARK  129  A    between atoms: _330  and  _331
REMARK  130  A    between atoms: _330  and  _333
REMARK  131  A    between atoms: _333  and  _334
REMARK  132  A    between atoms: _339  and  _341
REMARK  133  A    between atoms: _341  and  _342
REMARK  134  A    between atoms: _341  and  _344
REMARK  135  A    between atoms: _344  and  _345
REMARK  136  A    between atoms: _348  and  _350
REMARK  137  A    between atoms: _350  and  _351
REMARK  138  A    between atoms: _350  and  _353
REMARK  139  A    between atoms: _356  and  _358
REMARK  140  A    between atoms: _358  and  _359
REMARK  141  A    between atoms: _361  and  _363
REMARK  142  A    between atoms: _363  and  _364
REMARK  143  A    between atoms: _363  and  _366
REMARK  144  A    between atoms: _366  and  _367
REMARK  145  A    between atoms: _367  and  _368
REMARK  146  A    between atoms: _368  and  _369
REMARK  147  A    between atoms: _369  and  _370
REMARK  148  A    between atoms: _374  and  _376
REMARK  149  A    between atoms: _376  and  _377
REMARK  150  A    between atoms: _376  and  _379
REMARK  151  A    between atoms: _379  and  _380
REMARK  152  A    between atoms: _383  and  _385
REMARK  153  A    between atoms: _385  and  _386
REMARK  154  A    between atoms: _389  and  _391
REMARK  155  A    between atoms: _391  and  _392
REMARK  156  A    between atoms: _394  and  _396
REMARK  157  A    between atoms: _396  and  _397
REMARK  158  A    between atoms: _396  and  _399
REMARK  159  A    between atoms: _399  and  _400
REMARK  160  A    between atoms: _403  and  _405
REMARK  161  A    between atoms: _405  and  _406
REMARK  162  A    between atoms: _405  and  _408
REMARK  163  A    between atoms: _408  and  _409
REMARK  164  A    between atoms: _412  and  _414
REMARK  165  A    between atoms: _414  and  _415
REMARK  166  A    between atoms: _418  and  _420
REMARK  167  A    between atoms: _420  and  _421
REMARK  168  A    between atoms: _420  and  _423
REMARK  169  A    between atoms: _423  and  _424
REMARK  170  A    between atoms: _424  and  _425
REMARK  171  A    between atoms: _428  and  _430
REMARK  172  A    between atoms: _430  and  _431
REMARK  173  A    between atoms: _430  and  _433
REMARK  174  A    between atoms: _436  and  _438
REMARK  175  A    between atoms: _438  and  _439
REMARK  176  A    between atoms: _438  and  _441
REMARK  177  A    between atoms: _441  and  _442
REMARK  178  A    between atoms: _445  and  _447
REMARK  179  A    between atoms: _447  and  _448
REMARK  180  A    between atoms: _450  and  _452
REMARK  181  A    between atoms: _452  and  _453
REMARK  182  A    between atoms: _452  and  _455
REMARK  183  A    between atoms: _458  and  _460
REMARK  184  A    between atoms: _460  and  _461
REMARK  185  A    between atoms: _463  and  _465
REMARK  186  A    between atoms: _465  and  _466
REMARK  187  A    between atoms: _465  and  _468
REMARK  188  A    between atoms: _468  and  _469
REMARK  189  A    between atoms: _472  and  _474
REMARK  190  A    between atoms: _474  and  _475
REMARK  191  A    between atoms: _474  and  _477
REMARK  192  A    between atoms: _477  and  _478
REMARK  193  A    between atoms: _483  and  _485
REMARK  194  A    between atoms: _485  and  _486
REMARK  195  A    between atoms: _485  and  _488
REMARK  196  A    between atoms: _491  and  _493
REMARK  197  A    between atoms: _493  and  _494
REMARK  198  A    between atoms: _493  and  _496
REMARK  199  A    between atoms: _496  and  _497
REMARK  200  A    between atoms: _497  and  _498
REMARK  201  A    between atoms: _503  and  _505
REMARK  202  A    between atoms: _505  and  _506
REMARK  203  A    between atoms: _510  and  _511
REMARK  204  A    between atoms: _516  and  _518
REMARK  205  A    between atoms: _518  and  _519
REMARK  206  A    between atoms: _518  and  _521
REMARK  207  A    between atoms: _521  and  _522
REMARK  208  A    between atoms: _522  and  _523
REMARK  209  A    between atoms: _526  and  _528
REMARK  210  A    between atoms: _528  and  _529
REMARK  211  A    between atoms: _528  and  _531
REMARK  212  A    between atoms: _534  and  _536
REMARK  213  A    between atoms: _536  and  _537
REMARK  214  A    between atoms: _536  and  _539
REMARK  215  A    between atoms: _539  and  _540
REMARK  216  A    between atoms: _544  and  _545
REMARK  217  A    between atoms: _550  and  _552
REMARK  218  A    between atoms: _552  and  _553
REMARK  219  A    between atoms: _552  and  _555
REMARK  220  A    between atoms: _555  and  _556
REMARK  221  A    between atoms: _559  and  _561
REMARK  222  A    between atoms: _561  and  _562
REMARK  223  A    between atoms: _565  and  _567
REMARK  224  A    between atoms: _567  and  _568
REMARK  225  A    between atoms: _567  and  _570
REMARK  226  A    between atoms: _570  and  _571
REMARK  227  A    between atoms: _574  and  _576
REMARK  228  A    between atoms: _576  and  _577
REMARK  229  A    between atoms: _576  and  _579
REMARK  230  A    between atoms: _579  and  _580
REMARK  231  A    between atoms: _582  and  _584
REMARK  232  A    between atoms: _584  and  _585
REMARK  233  A    between atoms: _587  and  _589
REMARK  234  A    between atoms: _589  and  _590
REMARK  235  A    between atoms: _589  and  _592
REMARK  236  A    between atoms: _592  and  _593
REMARK  237  A    between atoms: _596  and  _598
REMARK  238  A    between atoms: _598  and  _599
REMARK  239  A    between atoms: _598  and  _601
REMARK                            x       y       z     vdW  Elec       q    Type
REMARK                         _______ _______ _______ _____ _____    ______ ____
ROOT
ATOM      1  O   HOH     1       1.457   1.879  15.443  0.00  0.00    +0.000 OA
ENDROOT
TORSDOF 0
REMARK  Name = ../refined-set-2016/3rux/3rux_pocket.pdb
REMARK  239 active torsions:
REMARK  status: ('A' for Active; 'I' for Inactive)
REMARK    1  A    between atoms: _1  and  _3
REMARK    2  A    between atoms: _3  and  _4
REMARK    3  A    between atoms: _3  and  _6
REMARK    4  A    between atoms: _6  and  _7
REMARK    5  A    between atoms: _10  and  _12
REMARK    6  A    between atoms: _12  and  _13
REMARK    7  A    between atoms: _15  and  _17
REMARK    8  A    between atoms: _17  and  _18
REMARK    9  A    between atoms: _17  and  _20
REMARK   10  A    between atoms: _20  and  _21
REMARK   11  A    between atoms: _23  and  _25
REMARK   12  A    between atoms: _25  and  _26
REMARK   13  A    between atoms: _25  and  _28
REMARK   14  A    between atoms: _28  and  _29
REMARK   15  A    between atoms: _32  and  _34
REMARK   16  A    between atoms: _34  and  _35
REMARK   17  A    between atoms: _34  and  _37
REMARK   18  A    between atoms: _37  and  _38
REMARK   19  A    between atoms: _43  and  _45
REMARK   20  A    between atoms: _45  and  _46
REMARK   21  A    between atoms: _49  and  _51
REMARK   22  A    between atoms: _51  and  _52
REMARK   23  A    between atoms: _51  and  _54
REMARK   24  A    between atoms: _54  and  _55
REMARK   25  A    between atoms: _58  and  _60
REMARK   26  A    between atoms: _60  and  _61
REMARK   27  A    between atoms: _60  and  _63
REMARK   28  A    between atoms: _63  and  _64
REMARK   29  A    between atoms: _67  and  _69
REMARK   30  A    between atoms: _69  and  _70
REMARK   31  A    between atoms: _69  and  _72
REMARK   32  A    between atoms: _72  and  _73
REMARK   33  A    between atoms: _76  and  _78
REMARK   34  A    between atoms: _78  and  _79
REMARK   35  A    between atoms: _78  and  _81
REMARK   36  A    between atoms: _81  and  _82
REMARK   37  A    between atoms: _85  and  _87
REMARK   38  A    between atoms: _87  and  _88
REMARK   39  A    between atoms: _91  and  _93
REMARK   40  A    between atoms: _93  and  _94
REMARK   41  A    between atoms: _93  and  _96
REMARK   42  A    between atoms: _96  and  _97
REMARK   43  A    between atoms: _97  and  _98
REMARK   44  A    between atoms: _103  and  _105
REMARK   45  A    between atoms: _105  and  _106
REMARK   46  A    between atoms: _105  and  _108
REMARK   47  A    between atoms: _108  and  _109
REMARK   48  A    between atoms: _112  and  _114
REMARK   49  A    between atoms: _114  and  _115
REMARK   50  A    between atoms: _118  and  _120
REMARK   51  A    between atoms: _120  and  _121
REMARK   52  A    between atoms: _123  and  _125
REMARK   53  A    between atoms: _125  and  _126
REMARK   54  A    between atoms: _125  and  _128
REMARK   55  A    between atoms: _128  and  _129
REMARK   56  A    between atoms: _129  and  _130
REMARK   57  A    between atoms: _130  and  _131
REMARK   58  A    between atoms: _140  and  _142
REMARK   59  A    between atoms: _142  and  _143
REMARK   60  A    between atoms: _145  and  _147
REMARK   61  A    between atoms: _147  and  _148
REMARK   62  A    between atoms: _147  and  _150
REMARK   63  A    between atoms: _150  and  _151
REMARK   64  A    between atoms: _151  and  _152
REMARK   65  A    between atoms: _152  and  _153
REMARK   66  A    between atoms: _162  and  _164
REMARK   67  A    between atoms: _164  and  _165
REMARK   68  A    between atoms: _164  and  _167
REMARK   69  A    between atoms: _167  and  _168
REMARK   70  A    between atoms: _173  and  _175
REMARK   71  A    between atoms: _175  and  _176
REMARK   72  A    between atoms: _178  and  _180
REMARK   73  A    between atoms: _180  and  _181
REMARK   74  A    between atoms: _180  and  _183
REMARK   75  A    between atoms: _183  and  _184
REMARK   76  A    between atoms: _184  and  _185
REMARK   77  A    between atoms: _185  and  _186
REMARK   78  A    between atoms: _195  and  _197
REMARK   79  A    between atoms: _197  and  _198
REMARK   80  A    between atoms: _200  and  _202
REMARK   81  A    between atoms: _202  and  _203
REMARK   82  A    between atoms: _202  and  _205
REMARK   83  A    between atoms: _205  and  _206
REMARK   84  A    between atoms: _216  and  _218
REMARK   85  A    between atoms: _218  and  _219
REMARK   86  A    between atoms: _222  and  _224
REMARK   87  A    between atoms: _224  and  _225
REMARK   88  A    between atoms: _228  and  _230
REMARK   89  A    between atoms: _230  and  _231
REMARK   90  A    between atoms: _230  and  _233
REMARK   91  A    between atoms: _233  and  _234
REMARK   92  A    between atoms: _237  and  _239
REMARK   93  A    between atoms: _239  and  _240
REMARK   94  A    between atoms: _239  and  _242
REMARK   95  A    between atoms: _242  and  _243
REMARK   96  A    between atoms: _243  and  _244
REMARK   97  A    between atoms: _249  and  _251
REMARK   98  A    between atoms: _251  and  _252
REMARK   99  A    between atoms: _251  and  _254
REMARK  100  A    between atoms: _254  and  _255
REMARK  101  A    between atoms: _258  and  _260
REMARK  102  A    between atoms: _260  and  _261
REMARK  103  A    between atoms: _260  and  _263
REMARK  104  A    between atoms: _263  and  _264
REMARK  105  A    between atoms: _267  and  _269
REMARK  106  A    between atoms: _269  and  _270
REMARK  107  A    between atoms: _269  and  _272
REMARK  108  A    between atoms: _272  and  _273
REMARK  109  A    between atoms: _276  and  _278
REMARK  110  A    between atoms: _278  and  _279
REMARK  111  A    between atoms: _278  and  _281
REMARK  112  A    between atoms: _281  and  _282
REMARK  113  A    between atoms: _284  and  _286
REMARK  114  A    between atoms: _286  and  _287
REMARK  115  A    between atoms: _286  and  _289
REMARK  116  A    between atoms: _292  and  _294
REMARK  117  A    between atoms: _294  and  _295
REMARK  118  A    between atoms: _294  and  _297
REMARK  119  A    between atoms: _297  and  _298
REMARK  120  A    between atoms: _298  and  _299
REMARK  121  A    between atoms: _299  and  _300
REMARK  122  A    between atoms: _300  and  _301
REMARK  123  A    between atoms: _305  and  _307
REMARK  124  A    between atoms: _307  and  _308
REMARK  125  A    between atoms: _307  and  _310
REMARK  126  A    between atoms: _310  and  _311
REMARK  127  A    between atoms: _322  and  _323
REMARK  128  A    between atoms: _328  and  _330
REMARK  129  A    between atoms: _330  and  _331
REMARK  130  A    between atoms: _330  and  _333
REMARK  131  A    between atoms: _333  and  _334
REMARK  132  A    between atoms: _339  and  _341
REMARK  133  A    between atoms: _341  and  _342
REMARK  134  A    between atoms: _341  and  _344
REMARK  135  A    between atoms: _344  and  _345
REMARK  136  A    between atoms: _348  and  _350
REMARK  137  A    between atoms: _350  and  _351
REMARK  138  A    between atoms: _350  and  _353
REMARK  139  A    between atoms: _356  and  _358
REMARK  140  A    between atoms: _358  and  _359
REMARK  141  A    between atoms: _361  and  _363
REMARK  142  A    between atoms: _363  and  _364
REMARK  143  A    between atoms: _363  and  _366
REMARK  144  A    between atoms: _366  and  _367
REMARK  145  A    between atoms: _367  and  _368
REMARK  146  A    between atoms: _368  and  _369
REMARK  147  A    between atoms: _369  and  _370
REMARK  148  A    between atoms: _374  and  _376
REMARK  149  A    between atoms: _376  and  _377
REMARK  150  A    between atoms: _376  and  _379
REMARK  151  A    between atoms: _379  and  _380
REMARK  152  A    between atoms: _383  and  _385
REMARK  153  A    between atoms: _385  and  _386
REMARK  154  A    between atoms: _389  and  _391
REMARK  155  A    between atoms: _391  and  _392
REMARK  156  A    between atoms: _394  and  _396
REMARK  157  A    between atoms: _396  and  _397
REMARK  158  A    between atoms: _396  and  _399
REMARK  159  A    between atoms: _399  and  _400
REMARK  160  A    between atoms: _403  and  _405
REMARK  161  A    between atoms: _405  and  _406
REMARK  162  A    between atoms: _405  and  _408
REMARK  163  A    between atoms: _408  and  _409
REMARK  164  A    between atoms: _412  and  _414
REMARK  165  A    between atoms: _414  and  _415
REMARK  166  A    between atoms: _418  and  _420
REMARK  167  A    between atoms: _420  and  _421
REMARK  168  A    between atoms: _420  and  _423
REMARK  169  A    between atoms: _423  and  _424
REMARK  170  A    between atoms: _424  and  _425
REMARK  171  A    between atoms: _428  and  _430
REMARK  172  A    between atoms: _430  and  _431
REMARK  173  A    between atoms: _430  and  _433
REMARK  174  A    between atoms: _436  and  _438
REMARK  175  A    between atoms: _438  and  _439
REMARK  176  A    between atoms: _438  and  _441
REMARK  177  A    between atoms: _441  and  _442
REMARK  178  A    between atoms: _445  and  _447
REMARK  179  A    between atoms: _447  and  _448
REMARK  180  A    between atoms: _450  and  _452
REMARK  181  A    between atoms: _452  and  _453
REMARK  182  A    between atoms: _452  and  _455
REMARK  183  A    between atoms: _458  and  _460
REMARK  184  A    between atoms: _460  and  _461
REMARK  185  A    between atoms: _463  and  _465
REMARK  186  A    between atoms: _465  and  _466
REMARK  187  A    between atoms: _465  and  _468
REMARK  188  A    between atoms: _468  and  _469
REMARK  189  A    between atoms: _472  and  _474
REMARK  190  A    between atoms: _474  and  _475
REMARK  191  A    between atoms: _474  and  _477
REMARK  192  A    between atoms: _477  and  _478
REMARK  193  A    between atoms: _483  and  _485
REMARK  194  A    between atoms: _485  and  _486
REMARK  195  A    between atoms: _485  and  _488
REMARK  196  A    between atoms: _491  and  _493
REMARK  197  A    between atoms: _493  and  _494
REMARK  198  A    between atoms: _493  and  _496
REMARK  199  A    between atoms: _496  and  _497
REMARK  200  A    between atoms: _497  and  _498
REMARK  201  A    between atoms: _503  and  _505
REMARK  202  A    between atoms: _505  and  _506
REMARK  203  A    between atoms: _510  and  _511
REMARK  204  A    between atoms: _516  and  _518
REMARK  205  A    between atoms: _518  and  _519
REMARK  206  A    between atoms: _518  and  _521
REMARK  207  A    between atoms: _521  and  _522
REMARK  208  A    between atoms: _522  and  _523
REMARK  209  A    between atoms: _526  and  _528
REMARK  210  A    between atoms: _528  and  _529
REMARK  211  A    between atoms: _528  and  _531
REMARK  212  A    between atoms: _534  and  _536
REMARK  213  A    between atoms: _536  and  _537
REMARK  214  A    between atoms: _536  and  _539
REMARK  215  A    between atoms: _539  and  _540
REMARK  216  A    between atoms: _544  and  _545
REMARK  217  A    between atoms: _550  and  _552
REMARK  218  A    between atoms: _552  and  _553
REMARK  219  A    between atoms: _552  and  _555
REMARK  220  A    between atoms: _555  and  _556
REMARK  221  A    between atoms: _559  and  _561
REMARK  222  A    between atoms: _561  and  _562
REMARK  223  A    between atoms: _565  and  _567
REMARK  224  A    between atoms: _567  and  _568
REMARK  225  A    between atoms: _567  and  _570
REMARK  226  A    between atoms: _570  and  _571
REMARK  227  A    between atoms: _574  and  _576
REMARK  228  A    between atoms: _576  and  _577
REMARK  229  A    between atoms: _576  and  _579
REMARK  230  A    between atoms: _579  and  _580
REMARK  231  A    between atoms: _582  and  _584
REMARK  232  A    between atoms: _584  and  _585
REMARK  233  A    between atoms: _587  and  _589
REMARK  234  A    between atoms: _589  and  _590
REMARK  235  A    between atoms: _589  and  _592
REMARK  236  A    between atoms: _592  and  _593
REMARK  237  A    between atoms: _596  and  _598
REMARK  238  A    between atoms: _598  and  _599
REMARK  239  A    between atoms: _598  and  _601
REMARK                            x       y       z     vdW  Elec       q    Type
REMARK                         _______ _______ _______ _____ _____    ______ ____
ROOT
ATOM      1  O   HOH     1      -1.846 -11.620   2.982  0.00  0.00    +0.000 OA
ENDROOT
TORSDOF 0
REMARK  Name = ../refined-set-2016/3rux/3rux_pocket.pdb
REMARK  239 active torsions:
REMARK  status: ('A' for Active; 'I' for Inactive)
REMARK    1  A    between atoms: _1  and  _3
REMARK    2  A    between atoms: _3  and  _4
REMARK    3  A    between atoms: _3  and  _6
REMARK    4  A    between atoms: _6  and  _7
REMARK    5  A    between atoms: _10  and  _12
REMARK    6  A    between atoms: _12  and  _13
REMARK    7  A    between atoms: _15  and  _17
REMARK    8  A    between atoms: _17  and  _18
REMARK    9  A    between atoms: _17  and  _20
REMARK   10  A    between atoms: _20  and  _21
REMARK   11  A    between atoms: _23  and  _25
REMARK   12  A    between atoms: _25  and  _26
REMARK   13  A    between atoms: _25  and  _28
REMARK   14  A    between atoms: _28  and  _29
REMARK   15  A    between atoms: _32  and  _34
REMARK   16  A    between atoms: _34  and  _35
REMARK   17  A    between atoms: _34  and  _37
REMARK   18  A    between atoms: _37  and  _38
REMARK   19  A    between atoms: _43  and  _45
REMARK   20  A    between atoms: _45  and  _46
REMARK   21  A    between atoms: _49  and  _51
REMARK   22  A    between atoms: _51  and  _52
REMARK   23  A    between atoms: _51  and  _54
REMARK   24  A    between atoms: _54  and  _55
REMARK   25  A    between atoms: _58  and  _60
REMARK   26  A    between atoms: _60  and  _61
REMARK   27  A    between atoms: _60  and  _63
REMARK   28  A    between atoms: _63  and  _64
REMARK   29  A    between atoms: _67  and  _69
REMARK   30  A    between atoms: _69  and  _70
REMARK   31  A    between atoms: _69  and  _72
REMARK   32  A    between atoms: _72  and  _73
REMARK   33  A    between atoms: _76  and  _78
REMARK   34  A    between atoms: _78  and  _79
REMARK   35  A    between atoms: _78  and  _81
REMARK   36  A    between atoms: _81  and  _82
REMARK   37  A    between atoms: _85  and  _87
REMARK   38  A    between atoms: _87  and  _88
REMARK   39  A    between atoms: _91  and  _93
REMARK   40  A    between atoms: _93  and  _94
REMARK   41  A    between atoms: _93  and  _96
REMARK   42  A    between atoms: _96  and  _97
REMARK   43  A    between atoms: _97  and  _98
REMARK   44  A    between atoms: _103  and  _105
REMARK   45  A    between atoms: _105  and  _106
REMARK   46  A    between atoms: _105  and  _108
REMARK   47  A    between atoms: _108  and  _109
REMARK   48  A    between atoms: _112  and  _114
REMARK   49  A    between atoms: _114  and  _115
REMARK   50  A    between atoms: _118  and  _120
REMARK   51  A    between atoms: _120  and  _121
REMARK   52  A    between atoms: _123  and  _125
REMARK   53  A    between atoms: _125  and  _126
REMARK   54  A    between atoms: _125  and  _128
REMARK   55  A    between atoms: _128  and  _129
REMARK   56  A    between atoms: _129  and  _130
REMARK   57  A    between atoms: _130  and  _131
REMARK   58  A    between atoms: _140  and  _142
REMARK   59  A    between atoms: _142  and  _143
REMARK   60  A    between atoms: _145  and  _147
REMARK   61  A    between atoms: _147  and  _148
REMARK   62  A    between atoms: _147  and  _150
REMARK   63  A    between atoms: _150  and  _151
REMARK   64  A    between atoms: _151  and  _152
REMARK   65  A    between atoms: _152  and  _153
REMARK   66  A    between atoms: _162  and  _164
REMARK   67  A    between atoms: _164  and  _165
REMARK   68  A    between atoms: _164  and  _167
REMARK   69  A    between atoms: _167  and  _168
REMARK   70  A    between atoms: _173  and  _175
REMARK   71  A    between atoms: _175  and  _176
REMARK   72  A    between atoms: _178  and  _180
REMARK   73  A    between atoms: _180  and  _181
REMARK   74  A    between atoms: _180  and  _183
REMARK   75  A    between atoms: _183  and  _184
REMARK   76  A    between atoms: _184  and  _185
REMARK   77  A    between atoms: _185  and  _186
REMARK   78  A    between atoms: _195  and  _197
REMARK   79  A    between atoms: _197  and  _198
REMARK   80  A    between atoms: _200  and  _202
REMARK   81  A    between atoms: _202  and  _203
REMARK   82  A    between atoms: _202  and  _205
REMARK   83  A    between atoms: _205  and  _206
REMARK   84  A    between atoms: _216  and  _218
REMARK   85  A    between atoms: _218  and  _219
REMARK   86  A    between atoms: _222  and  _224
REMARK   87  A    between atoms: _224  and  _225
REMARK   88  A    between atoms: _228  and  _230
REMARK   89  A    between atoms: _230  and  _231
REMARK   90  A    between atoms: _230  and  _233
REMARK   91  A    between atoms: _233  and  _234
REMARK   92  A    between atoms: _237  and  _239
REMARK   93  A    between atoms: _239  and  _240
REMARK   94  A    between atoms: _239  and  _242
REMARK   95  A    between atoms: _242  and  _243
REMARK   96  A    between atoms: _243  and  _244
REMARK   97  A    between atoms: _249  and  _251
REMARK   98  A    between atoms: _251  and  _252
REMARK   99  A    between atoms: _251  and  _254
REMARK  100  A    between atoms: _254  and  _255
REMARK  101  A    between atoms: _258  and  _260
REMARK  102  A    between atoms: _260  and  _261
REMARK  103  A    between atoms: _260  and  _263
REMARK  104  A    between atoms: _263  and  _264
REMARK  105  A    between atoms: _267  and  _269
REMARK  106  A    between atoms: _269  and  _270
REMARK  107  A    between atoms: _269  and  _272
REMARK  108  A    between atoms: _272  and  _273
REMARK  109  A    between atoms: _276  and  _278
REMARK  110  A    between atoms: _278  and  _279
REMARK  111  A    between atoms: _278  and  _281
REMARK  112  A    between atoms: _281  and  _282
REMARK  113  A    between atoms: _284  and  _286
REMARK  114  A    between atoms: _286  and  _287
REMARK  115  A    between atoms: _286  and  _289
REMARK  116  A    between atoms: _292  and  _294
REMARK  117  A    between atoms: _294  and  _295
REMARK  118  A    between atoms: _294  and  _297
REMARK  119  A    between atoms: _297  and  _298
REMARK  120  A    between atoms: _298  and  _299
REMARK  121  A    between atoms: _299  and  _300
REMARK  122  A    between atoms: _300  and  _301
REMARK  123  A    between atoms: _305  and  _307
REMARK  124  A    between atoms: _307  and  _308
REMARK  125  A    between atoms: _307  and  _310
REMARK  126  A    between atoms: _310  and  _311
REMARK  127  A    between atoms: _322  and  _323
REMARK  128  A    between atoms: _328  and  _330
REMARK  129  A    between atoms: _330  and  _331
REMARK  130  A    between atoms: _330  and  _333
REMARK  131  A    between atoms: _333  and  _334
REMARK  132  A    between atoms: _339  and  _341
REMARK  133  A    between atoms: _341  and  _342
REMARK  134  A    between atoms: _341  and  _344
REMARK  135  A    between atoms: _344  and  _345
REMARK  136  A    between atoms: _348  and  _350
REMARK  137  A    between atoms: _350  and  _351
REMARK  138  A    between atoms: _350  and  _353
REMARK  139  A    between atoms: _356  and  _358
REMARK  140  A    between atoms: _358  and  _359
REMARK  141  A    between atoms: _361  and  _363
REMARK  142  A    between atoms: _363  and  _364
REMARK  143  A    between atoms: _363  and  _366
REMARK  144  A    between atoms: _366  and  _367
REMARK  145  A    between atoms: _367  and  _368
REMARK  146  A    between atoms: _368  and  _369
REMARK  147  A    between atoms: _369  and  _370
REMARK  148  A    between atoms: _374  and  _376
REMARK  149  A    between atoms: _376  and  _377
REMARK  150  A    between atoms: _376  and  _379
REMARK  151  A    between atoms: _379  and  _380
REMARK  152  A    between atoms: _383  and  _385
REMARK  153  A    between atoms: _385  and  _386
REMARK  154  A    between atoms: _389  and  _391
REMARK  155  A    between atoms: _391  and  _392
REMARK  156  A    between atoms: _394  and  _396
REMARK  157  A    between atoms: _396  and  _397
REMARK  158  A    between atoms: _396  and  _399
REMARK  159  A    between atoms: _399  and  _400
REMARK  160  A    between atoms: _403  and  _405
REMARK  161  A    between atoms: _405  and  _406
REMARK  162  A    between atoms: _405  and  _408
REMARK  163  A    between atoms: _408  and  _409
REMARK  164  A    between atoms: _412  and  _414
REMARK  165  A    between atoms: _414  and  _415
REMARK  166  A    between atoms: _418  and  _420
REMARK  167  A    between atoms: _420  and  _421
REMARK  168  A    between atoms: _420  and  _423
REMARK  169  A    between atoms: _423  and  _424
REMARK  170  A    between atoms: _424  and  _425
REMARK  171  A    between atoms: _428  and  _430
REMARK  172  A    between atoms: _430  and  _431
REMARK  173  A    between atoms: _430  and  _433
REMARK  174  A    between atoms: _436  and  _438
REMARK  175  A    between atoms: _438  and  _439
REMARK  176  A    between atoms: _438  and  _441
REMARK  177  A    between atoms: _441  and  _442
REMARK  178  A    between atoms: _445  and  _447
REMARK  179  A    between atoms: _447  and  _448
REMARK  180  A    between atoms: _450  and  _452
REMARK  181  A    between atoms: _452  and  _453
REMARK  182  A    between atoms: _452  and  _455
REMARK  183  A    between atoms: _458  and  _460
REMARK  184  A    between atoms: _460  and  _461
REMARK  185  A    between atoms: _463  and  _465
REMARK  186  A    between atoms: _465  and  _466
REMARK  187  A    between atoms: _465  and  _468
REMARK  188  A    between atoms: _468  and  _469
REMARK  189  A    between atoms: _472  and  _474
REMARK  190  A    between atoms: _474  and  _475
REMARK  191  A    between atoms: _474  and  _477
REMARK  192  A    between atoms: _477  and  _478
REMARK  193  A    between atoms: _483  and  _485
REMARK  194  A    between atoms: _485  and  _486
REMARK  195  A    between atoms: _485  and  _488
REMARK  196  A    between atoms: _491  and  _493
REMARK  197  A    between atoms: _493  and  _494
REMARK  198  A    between atoms: _493  and  _496
REMARK  199  A    between atoms: _496  and  _497
REMARK  200  A    between atoms: _497  and  _498
REMARK  201  A    between atoms: _503  and  _505
REMARK  202  A    between atoms: _505  and  _506
REMARK  203  A    between atoms: _510  and  _511
REMARK  204  A    between atoms: _516  and  _518
REMARK  205  A    between atoms: _518  and  _519
REMARK  206  A    between atoms: _518  and  _521
REMARK  207  A    between atoms: _521  and  _522
REMARK  208  A    between atoms: _522  and  _523
REMARK  209  A    between atoms: _526  and  _528
REMARK  210  A    between atoms: _528  and  _529
REMARK  211  A    between atoms: _528  and  _531
REMARK  212  A    between atoms: _534  and  _536
REMARK  213  A    between atoms: _536  and  _537
REMARK  214  A    between atoms: _536  and  _539
REMARK  215  A    between atoms: _539  and  _540
REMARK  216  A    between atoms: _544  and  _545
REMARK  217  A    between atoms: _550  and  _552
REMARK  218  A    between atoms: _552  and  _553
REMARK  219  A    between atoms: _552  and  _555
REMARK  220  A    between atoms: _555  and  _556
REMARK  221  A    between atoms: _559  and  _561
REMARK  222  A    between atoms: _561  and  _562
REMARK  223  A    between atoms: _565  and  _567
REMARK  224  A    between atoms: _567  and  _568
REMARK  225  A    between atoms: _567  and  _570
REMARK  226  A    between atoms: _570  and  _571
REMARK  227  A    between atoms: _574  and  _576
REMARK  228  A    between atoms: _576  and  _577
REMARK  229  A    between atoms: _576  and  _579
REMARK  230  A    between atoms: _579  and  _580
REMARK  231  A    between atoms: _582  and  _584
REMARK  232  A    between atoms: _584  and  _585
REMARK  233  A    between atoms: _587  and  _589
REMARK  234  A    between atoms: _589  and  _590
REMARK  235  A    between atoms: _589  and  _592
REMARK  236  A    between atoms: _592  and  _593
REMARK  237  A    between atoms: _596  and  _598
REMARK  238  A    between atoms: _598  and  _599
REMARK  239  A    between atoms: _598  and  _601
REMARK                            x       y       z     vdW  Elec       q    Type
REMARK                         _______ _______ _______ _____ _____    ______ ____
ROOT
ATOM      1  O   HOH     1      -1.745  -4.380  -2.385  0.00  0.00    +0.000 OA
ENDROOT
TORSDOF 0
REMARK  Name = ../refined-set-2016/3rux/3rux_pocket.pdb
REMARK  239 active torsions:
REMARK  status: ('A' for Active; 'I' for Inactive)
REMARK    1  A    between atoms: _1  and  _3
REMARK    2  A    between atoms: _3  and  _4
REMARK    3  A    between atoms: _3  and  _6
REMARK    4  A    between atoms: _6  and  _7
REMARK    5  A    between atoms: _10  and  _12
REMARK    6  A    between atoms: _12  and  _13
REMARK    7  A    between atoms: _15  and  _17
REMARK    8  A    between atoms: _17  and  _18
REMARK    9  A    between atoms: _17  and  _20
REMARK   10  A    between atoms: _20  and  _21
REMARK   11  A    between atoms: _23  and  _25
REMARK   12  A    between atoms: _25  and  _26
REMARK   13  A    between atoms: _25  and  _28
REMARK   14  A    between atoms: _28  and  _29
REMARK   15  A    between atoms: _32  and  _34
REMARK   16  A    between atoms: _34  and  _35
REMARK   17  A    between atoms: _34  and  _37
REMARK   18  A    between atoms: _37  and  _38
REMARK   19  A    between atoms: _43  and  _45
REMARK   20  A    between atoms: _45  and  _46
REMARK   21  A    between atoms: _49  and  _51
REMARK   22  A    between atoms: _51  and  _52
REMARK   23  A    between atoms: _51  and  _54
REMARK   24  A    between atoms: _54  and  _55
REMARK   25  A    between atoms: _58  and  _60
REMARK   26  A    between atoms: _60  and  _61
REMARK   27  A    between atoms: _60  and  _63
REMARK   28  A    between atoms: _63  and  _64
REMARK   29  A    between atoms: _67  and  _69
REMARK   30  A    between atoms: _69  and  _70
REMARK   31  A    between atoms: _69  and  _72
REMARK   32  A    between atoms: _72  and  _73
REMARK   33  A    between atoms: _76  and  _78
REMARK   34  A    between atoms: _78  and  _79
REMARK   35  A    between atoms: _78  and  _81
REMARK   36  A    between atoms: _81  and  _82
REMARK   37  A    between atoms: _85  and  _87
REMARK   38  A    between atoms: _87  and  _88
REMARK   39  A    between atoms: _91  and  _93
REMARK   40  A    between atoms: _93  and  _94
REMARK   41  A    between atoms: _93  and  _96
REMARK   42  A    between atoms: _96  and  _97
REMARK   43  A    between atoms: _97  and  _98
REMARK   44  A    between atoms: _103  and  _105
REMARK   45  A    between atoms: _105  and  _106
REMARK   46  A    between atoms: _105  and  _108
REMARK   47  A    between atoms: _108  and  _109
REMARK   48  A    between atoms: _112  and  _114
REMARK   49  A    between atoms: _114  and  _115
REMARK   50  A    between atoms: _118  and  _120
REMARK   51  A    between atoms: _120  and  _121
REMARK   52  A    between atoms: _123  and  _125
REMARK   53  A    between atoms: _125  and  _126
REMARK   54  A    between atoms: _125  and  _128
REMARK   55  A    between atoms: _128  and  _129
REMARK   56  A    between atoms: _129  and  _130
REMARK   57  A    between atoms: _130  and  _131
REMARK   58  A    between atoms: _140  and  _142
REMARK   59  A    between atoms: _142  and  _143
REMARK   60  A    between atoms: _145  and  _147
REMARK   61  A    between atoms: _147  and  _148
REMARK   62  A    between atoms: _147  and  _150
REMARK   63  A    between atoms: _150  and  _151
REMARK   64  A    between atoms: _151  and  _152
REMARK   65  A    between atoms: _152  and  _153
REMARK   66  A    between atoms: _162  and  _164
REMARK   67  A    between atoms: _164  and  _165
REMARK   68  A    between atoms: _164  and  _167
REMARK   69  A    between atoms: _167  and  _168
REMARK   70  A    between atoms: _173  and  _175
REMARK   71  A    between atoms: _175  and  _176
REMARK   72  A    between atoms: _178  and  _180
REMARK   73  A    between atoms: _180  and  _181
REMARK   74  A    between atoms: _180  and  _183
REMARK   75  A    between atoms: _183  and  _184
REMARK   76  A    between atoms: _184  and  _185
REMARK   77  A    between atoms: _185  and  _186
REMARK   78  A    between atoms: _195  and  _197
REMARK   79  A    between atoms: _197  and  _198
REMARK   80  A    between atoms: _200  and  _202
REMARK   81  A    between atoms: _202  and  _203
REMARK   82  A    between atoms: _202  and  _205
REMARK   83  A    between atoms: _205  and  _206
REMARK   84  A    between atoms: _216  and  _218
REMARK   85  A    between atoms: _218  and  _219
REMARK   86  A    between atoms: _222  and  _224
REMARK   87  A    between atoms: _224  and  _225
REMARK   88  A    between atoms: _228  and  _230
REMARK   89  A    between atoms: _230  and  _231
REMARK   90  A    between atoms: _230  and  _233
REMARK   91  A    between atoms: _233  and  _234
REMARK   92  A    between atoms: _237  and  _239
REMARK   93  A    between atoms: _239  and  _240
REMARK   94  A    between atoms: _239  and  _242
REMARK   95  A    between atoms: _242  and  _243
REMARK   96  A    between atoms: _243  and  _244
REMARK   97  A    between atoms: _249  and  _251
REMARK   98  A    between atoms: _251  and  _252
REMARK   99  A    between atoms: _251  and  _254
REMARK  100  A    between atoms: _254  and  _255
REMARK  101  A    between atoms: _258  and  _260
REMARK  102  A    between atoms: _260  and  _261
REMARK  103  A    between atoms: _260  and  _263
REMARK  104  A    between atoms: _263  and  _264
REMARK  105  A    between atoms: _267  and  _269
REMARK  106  A    between atoms: _269  and  _270
REMARK  107  A    between atoms: _269  and  _272
REMARK  108  A    between atoms: _272  and  _273
REMARK  109  A    between atoms: _276  and  _278
REMARK  110  A    between atoms: _278  and  _279
REMARK  111  A    between atoms: _278  and  _281
REMARK  112  A    between atoms: _281  and  _282
REMARK  113  A    between atoms: _284  and  _286
REMARK  114  A    between atoms: _286  and  _287
REMARK  115  A    between atoms: _286  and  _289
REMARK  116  A    between atoms: _292  and  _294
REMARK  117  A    between atoms: _294  and  _295
REMARK  118  A    between atoms: _294  and  _297
REMARK  119  A    between atoms: _297  and  _298
REMARK  120  A    between atoms: _298  and  _299
REMARK  121  A    between atoms: _299  and  _300
REMARK  122  A    between atoms: _300  and  _301
REMARK  123  A    between atoms: _305  and  _307
REMARK  124  A    between atoms: _307  and  _308
REMARK  125  A    between atoms: _307  and  _310
REMARK  126  A    between atoms: _310  and  _311
REMARK  127  A    between atoms: _322  and  _323
REMARK  128  A    between atoms: _328  and  _330
REMARK  129  A    between atoms: _330  and  _331
REMARK  130  A    between atoms: _330  and  _333
REMARK  131  A    between atoms: _333  and  _334
REMARK  132  A    between atoms: _339  and  _341
REMARK  133  A    between atoms: _341  and  _342
REMARK  134  A    between atoms: _341  and  _344
REMARK  135  A    between atoms: _344  and  _345
REMARK  136  A    between atoms: _348  and  _350
REMARK  137  A    between atoms: _350  and  _351
REMARK  138  A    between atoms: _350  and  _353
REMARK  139  A    between atoms: _356  and  _358
REMARK  140  A    between atoms: _358  and  _359
REMARK  141  A    between atoms: _361  and  _363
REMARK  142  A    between atoms: _363  and  _364
REMARK  143  A    between atoms: _363  and  _366
REMARK  144  A    between atoms: _366  and  _367
REMARK  145  A    between atoms: _367  and  _368
REMARK  146  A    between atoms: _368  and  _369
REMARK  147  A    between atoms: _369  and  _370
REMARK  148  A    between atoms: _374  and  _376
REMARK  149  A    between atoms: _376  and  _377
REMARK  150  A    between atoms: _376  and  _379
REMARK  151  A    between atoms: _379  and  _380
REMARK  152  A    between atoms: _383  and  _385
REMARK  153  A    between atoms: _385  and  _386
REMARK  154  A    between atoms: _389  and  _391
REMARK  155  A    between atoms: _391  and  _392
REMARK  156  A    between atoms: _394  and  _396
REMARK  157  A    between atoms: _396  and  _397
REMARK  158  A    between atoms: _396  and  _399
REMARK  159  A    between atoms: _399  and  _400
REMARK  160  A    between atoms: _403  and  _405
REMARK  161  A    between atoms: _405  and  _406
REMARK  162  A    between atoms: _405  and  _408
REMARK  163  A    between atoms: _408  and  _409
REMARK  164  A    between atoms: _412  and  _414
REMARK  165  A    between atoms: _414  and  _415
REMARK  166  A    between atoms: _418  and  _420
REMARK  167  A    between atoms: _420  and  _421
REMARK  168  A    between atoms: _420  and  _423
REMARK  169  A    between atoms: _423  and  _424
REMARK  170  A    between atoms: _424  and  _425
REMARK  171  A    between atoms: _428  and  _430
REMARK  172  A    between atoms: _430  and  _431
REMARK  173  A    between atoms: _430  and  _433
REMARK  174  A    between atoms: _436  and  _438
REMARK  175  A    between atoms: _438  and  _439
REMARK  176  A    between atoms: _438  and  _441
REMARK  177  A    between atoms: _441  and  _442
REMARK  178  A    between atoms: _445  and  _447
REMARK  179  A    between atoms: _447  and  _448
REMARK  180  A    between atoms: _450  and  _452
REMARK  181  A    between atoms: _452  and  _453
REMARK  182  A    between atoms: _452  and  _455
REMARK  183  A    between atoms: _458  and  _460
REMARK  184  A    between atoms: _460  and  _461
REMARK  185  A    between atoms: _463  and  _465
REMARK  186  A    between atoms: _465  and  _466
REMARK  187  A    between atoms: _465  and  _468
REMARK  188  A    between atoms: _468  and  _469
REMARK  189  A    between atoms: _472  and  _474
REMARK  190  A    between atoms: _474  and  _475
REMARK  191  A    between atoms: _474  and  _477
REMARK  192  A    between atoms: _477  and  _478
REMARK  193  A    between atoms: _483  and  _485
REMARK  194  A    between atoms: _485  and  _486
REMARK  195  A    between atoms: _485  and  _488
REMARK  196  A    between atoms: _491  and  _493
REMARK  197  A    between atoms: _493  and  _494
REMARK  198  A    between atoms: _493  and  _496
REMARK  199  A    between atoms: _496  and  _497
REMARK  200  A    between atoms: _497  and  _498
REMARK  201  A    between atoms: _503  and  _505
REMARK  202  A    between atoms: _505  and  _506
REMARK  203  A    between atoms: _510  and  _511
REMARK  204  A    between atoms: _516  and  _518
REMARK  205  A    between atoms: _518  and  _519
REMARK  206  A    between atoms: _518  and  _521
REMARK  207  A    between atoms: _521  and  _522
REMARK  208  A    between atoms: _522  and  _523
REMARK  209  A    between atoms: _526  and  _528
REMARK  210  A    between atoms: _528  and  _529
REMARK  211  A    between atoms: _528  and  _531
REMARK  212  A    between atoms: _534  and  _536
REMARK  213  A    between atoms: _536  and  _537
REMARK  214  A    between atoms: _536  and  _539
REMARK  215  A    between atoms: _539  and  _540
REMARK  216  A    between atoms: _544  and  _545
REMARK  217  A    between atoms: _550  and  _552
REMARK  218  A    between atoms: _552  and  _553
REMARK  219  A    between atoms: _552  and  _555
REMARK  220  A    between atoms: _555  and  _556
REMARK  221  A    between atoms: _559  and  _561
REMARK  222  A    between atoms: _561  and  _562
REMARK  223  A    between atoms: _565  and  _567
REMARK  224  A    between atoms: _567  and  _568
REMARK  225  A    between atoms: _567  and  _570
REMARK  226  A    between atoms: _570  and  _571
REMARK  227  A    between atoms: _574  and  _576
REMARK  228  A    between atoms: _576  and  _577
REMARK  229  A    between atoms: _576  and  _579
REMARK  230  A    between atoms: _579  and  _580
REMARK  231  A    between atoms: _582  and  _584
REMARK  232  A    between atoms: _584  and  _585
REMARK  233  A    between atoms: _587  and  _589
REMARK  234  A    between atoms: _589  and  _590
REMARK  235  A    between atoms: _589  and  _592
REMARK  236  A    between atoms: _592  and  _593
REMARK  237  A    between atoms: _596  and  _598
REMARK  238  A    between atoms: _598  and  _599
REMARK  239  A    between atoms: _598  and  _601
REMARK                            x       y       z     vdW  Elec       q    Type
REMARK                         _______ _______ _______ _____ _____    ______ ____
ROOT
ATOM      1  O   HOH     1       0.404  -3.954  -1.719  0.00  0.00    +0.000 OA
ENDROOT
TORSDOF 0
