REMARK  Name = ../refined-set-2016/3u6h/3u6h_pocket.pdb
REMARK  259 active torsions:
REMARK  status: ('A' for Active; 'I' for Inactive)
REMARK    1  A    between atoms: _1  and  _3
REMARK    2  A    between atoms: _3  and  _4
REMARK    3  A    between atoms: _3  and  _6
REMARK    4  A    between atoms: _9  and  _11
REMARK    5  A    between atoms: _11  and  _12
REMARK    6  A    between atoms: _11  and  _14
REMARK    7  A    between atoms: _17  and  _19
REMARK    8  A    between atoms: _19  and  _20
REMARK    9  A    between atoms: _19  and  _22
REMARK   10  A    between atoms: _22  and  _23
REMARK   11  A    between atoms: _26  and  _28
REMARK   12  A    between atoms: _28  and  _29
REMARK   13  A    between atoms: _31  and  _33
REMARK   14  A    between atoms: _33  and  _34
REMARK   15  A    between atoms: _33  and  _36
REMARK   16  A    between atoms: _36  and  _37
REMARK   17  A    between atoms: _37  and  _38
REMARK   18  A    between atoms: _38  and  _39
REMARK   19  A    between atoms: _48  and  _50
REMARK   20  A    between atoms: _50  and  _51
REMARK   21  A    between atoms: _53  and  _55
REMARK   22  A    between atoms: _55  and  _56
REMARK   23  A    between atoms: _55  and  _58
REMARK   24  A    between atoms: _58  and  _59
REMARK   25  A    between atoms: _64  and  _66
REMARK   26  A    between atoms: _66  and  _67
REMARK   27  A    between atoms: _66  and  _69
REMARK   28  A    between atoms: _69  and  _70
REMARK   29  A    between atoms: _76  and  _78
REMARK   30  A    between atoms: _78  and  _79
REMARK   31  A    between atoms: _81  and  _83
REMARK   32  A    between atoms: _83  and  _84
REMARK   33  A    between atoms: _83  and  _86
REMARK   34  A    between atoms: _88  and  _90
REMARK   35  A    between atoms: _90  and  _91
REMARK   36  A    between atoms: _90  and  _93
REMARK   37  A    between atoms: _96  and  _98
REMARK   38  A    between atoms: _98  and  _99
REMARK   39  A    between atoms: _98  and  _101
REMARK   40  A    between atoms: _101  and  _102
REMARK   41  A    between atoms: _107  and  _108
REMARK   42  A    between atoms: _110  and  _112
REMARK   43  A    between atoms: _112  and  _113
REMARK   44  A    between atoms: _112  and  _115
REMARK   45  A    between atoms: _115  and  _116
REMARK   46  A    between atoms: _121  and  _123
REMARK   47  A    between atoms: _123  and  _124
REMARK   48  A    between atoms: _123  and  _126
REMARK   49  A    between atoms: _126  and  _127
REMARK   50  A    between atoms: _132  and  _134
REMARK   51  A    between atoms: _134  and  _135
REMARK   52  A    between atoms: _134  and  _137
REMARK   53  A    between atoms: _139  and  _141
REMARK   54  A    between atoms: _141  and  _142
REMARK   55  A    between atoms: _145  and  _147
REMARK   56  A    between atoms: _147  and  _148
REMARK   57  A    between atoms: _147  and  _150
REMARK   58  A    between atoms: _153  and  _155
REMARK   59  A    between atoms: _155  and  _156
REMARK   60  A    between atoms: _155  and  _158
REMARK   61  A    between atoms: _158  and  _159
REMARK   62  A    between atoms: _159  and  _160
REMARK   63  A    between atoms: _160  and  _161
REMARK   64  A    between atoms: _161  and  _162
REMARK   65  A    between atoms: _166  and  _168
REMARK   66  A    between atoms: _168  and  _169
REMARK   67  A    between atoms: _168  and  _171
REMARK   68  A    between atoms: _171  and  _172
REMARK   69  A    between atoms: _174  and  _176
REMARK   70  A    between atoms: _176  and  _177
REMARK   71  A    between atoms: _176  and  _179
REMARK   72  A    between atoms: _179  and  _180
REMARK   73  A    between atoms: _183  and  _185
REMARK   74  A    between atoms: _185  and  _186
REMARK   75  A    between atoms: _185  and  _188
REMARK   76  A    between atoms: _188  and  _189
REMARK   77  A    between atoms: _192  and  _194
REMARK   78  A    between atoms: _194  and  _195
REMARK   79  A    between atoms: _194  and  _197
REMARK   80  A    between atoms: _197  and  _198
REMARK   81  A    between atoms: _198  and  _199
REMARK   82  A    between atoms: _202  and  _204
REMARK   83  A    between atoms: _204  and  _205
REMARK   84  A    between atoms: _204  and  _207
REMARK   85  A    between atoms: _210  and  _212
REMARK   86  A    between atoms: _212  and  _213
REMARK   87  A    between atoms: _212  and  _215
REMARK   88  A    between atoms: _215  and  _216
REMARK   89  A    between atoms: _216  and  _217
REMARK   90  A    between atoms: _222  and  _224
REMARK   91  A    between atoms: _224  and  _225
REMARK   92  A    between atoms: _224  and  _227
REMARK   93  A    between atoms: _227  and  _228
REMARK   94  A    between atoms: _234  and  _236
REMARK   95  A    between atoms: _236  and  _237
REMARK   96  A    between atoms: _236  and  _239
REMARK   97  A    between atoms: _239  and  _240
REMARK   98  A    between atoms: _243  and  _245
REMARK   99  A    between atoms: _245  and  _246
REMARK  100  A    between atoms: _245  and  _248
REMARK  101  A    between atoms: _248  and  _249
REMARK  102  A    between atoms: _252  and  _254
REMARK  103  A    between atoms: _254  and  _255
REMARK  104  A    between atoms: _254  and  _257
REMARK  105  A    between atoms: _257  and  _258
REMARK  106  A    between atoms: _258  and  _259
REMARK  107  A    between atoms: _262  and  _264
REMARK  108  A    between atoms: _264  and  _265
REMARK  109  A    between atoms: _267  and  _269
REMARK  110  A    between atoms: _269  and  _270
REMARK  111  A    between atoms: _269  and  _272
REMARK  112  A    between atoms: _272  and  _273
REMARK  113  A    between atoms: _276  and  _278
REMARK  114  A    between atoms: _278  and  _279
REMARK  115  A    between atoms: _278  and  _281
REMARK  116  A    between atoms: _281  and  _282
REMARK  117  A    between atoms: _285  and  _287
REMARK  118  A    between atoms: _287  and  _288
REMARK  119  A    between atoms: _287  and  _290
REMARK  120  A    between atoms: _290  and  _291
REMARK  121  A    between atoms: _291  and  _292
REMARK  122  A    between atoms: _294  and  _296
REMARK  123  A    between atoms: _296  and  _297
REMARK  124  A    between atoms: _296  and  _299
REMARK  125  A    between atoms: _299  and  _300
REMARK  126  A    between atoms: _300  and  _301
REMARK  127  A    between atoms: _301  and  _302
REMARK  128  A    between atoms: _302  and  _303
REMARK  129  A    between atoms: _307  and  _309
REMARK  130  A    between atoms: _309  and  _310
REMARK  131  A    between atoms: _309  and  _312
REMARK  132  A    between atoms: _312  and  _313
REMARK  133  A    between atoms: _319  and  _321
REMARK  134  A    between atoms: _321  and  _322
REMARK  135  A    between atoms: _321  and  _324
REMARK  136  A    between atoms: _327  and  _329
REMARK  137  A    between atoms: _329  and  _330
REMARK  138  A    between atoms: _329  and  _332
REMARK  139  A    between atoms: _332  and  _333
REMARK  140  A    between atoms: _336  and  _338
REMARK  141  A    between atoms: _338  and  _339
REMARK  142  A    between atoms: _338  and  _341
REMARK  143  A    between atoms: _341  and  _342
REMARK  144  A    between atoms: _344  and  _346
REMARK  145  A    between atoms: _346  and  _347
REMARK  146  A    between atoms: _346  and  _349
REMARK  147  A    between atoms: _349  and  _350
REMARK  148  A    between atoms: _353  and  _355
REMARK  149  A    between atoms: _355  and  _356
REMARK  150  A    between atoms: _358  and  _360
REMARK  151  A    between atoms: _360  and  _361
REMARK  152  A    between atoms: _360  and  _363
REMARK  153  A    between atoms: _363  and  _364
REMARK  154  A    between atoms: _367  and  _369
REMARK  155  A    between atoms: _369  and  _370
REMARK  156  A    between atoms: _369  and  _372
REMARK  157  A    between atoms: _375  and  _376
REMARK  158  A    between atoms: _381  and  _383
REMARK  159  A    between atoms: _383  and  _384
REMARK  160  A    between atoms: _383  and  _386
REMARK  161  A    between atoms: _386  and  _387
REMARK  162  A    between atoms: _390  and  _392
REMARK  163  A    between atoms: _392  and  _393
REMARK  164  A    between atoms: _392  and  _395
REMARK  165  A    between atoms: _398  and  _400
REMARK  166  A    between atoms: _400  and  _401
REMARK  167  A    between atoms: _400  and  _403
REMARK  168  A    between atoms: _406  and  _408
REMARK  169  A    between atoms: _408  and  _409
REMARK  170  A    between atoms: _408  and  _411
REMARK  171  A    between atoms: _411  and  _412
REMARK  172  A    between atoms: _416  and  _417
REMARK  173  A    between atoms: _422  and  _424
REMARK  174  A    between atoms: _424  and  _425
REMARK  175  A    between atoms: _424  and  _427
REMARK  176  A    between atoms: _427  and  _428
REMARK  177  A    between atoms: _433  and  _434
REMARK  178  A    between atoms: _436  and  _438
REMARK  179  A    between atoms: _438  and  _439
REMARK  180  A    between atoms: _438  and  _441
REMARK  181  A    between atoms: _441  and  _442
REMARK  182  A    between atoms: _442  and  _443
REMARK  183  A    between atoms: _445  and  _447
REMARK  184  A    between atoms: _447  and  _448
REMARK  185  A    between atoms: _447  and  _450
REMARK  186  A    between atoms: _450  and  _451
REMARK  187  A    between atoms: _451  and  _452
REMARK  188  A    between atoms: _452  and  _453
REMARK  189  A    between atoms: _453  and  _454
REMARK  190  A    between atoms: _458  and  _460
REMARK  191  A    between atoms: _460  and  _461
REMARK  192  A    between atoms: _460  and  _463
REMARK  193  A    between atoms: _463  and  _464
REMARK  194  A    between atoms: _469  and  _471
REMARK  195  A    between atoms: _471  and  _472
REMARK  196  A    between atoms: _474  and  _476
REMARK  197  A    between atoms: _476  and  _477
REMARK  198  A    between atoms: _476  and  _479
REMARK  199  A    between atoms: _479  and  _480
REMARK  200  A    between atoms: _483  and  _485
REMARK  201  A    between atoms: _485  and  _486
REMARK  202  A    between atoms: _485  and  _488
REMARK  203  A    between atoms: _488  and  _489
REMARK  204  A    between atoms: _494  and  _496
REMARK  205  A    between atoms: _496  and  _497
REMARK  206  A    between atoms: _496  and  _499
REMARK  207  A    between atoms: _499  and  _500
REMARK  208  A    between atoms: _503  and  _505
REMARK  209  A    between atoms: _505  and  _506
REMARK  210  A    between atoms: _505  and  _508
REMARK  211  A    between atoms: _508  and  _509
REMARK  212  A    between atoms: _515  and  _517
REMARK  213  A    between atoms: _517  and  _518
REMARK  214  A    between atoms: _517  and  _520
REMARK  215  A    between atoms: _520  and  _521
REMARK  216  A    between atoms: _526  and  _528
REMARK  217  A    between atoms: _528  and  _529
REMARK  218  A    between atoms: _528  and  _531
REMARK  219  A    between atoms: _531  and  _532
REMARK  220  A    between atoms: _532  and  _533
REMARK  221  A    between atoms: _533  and  _534
REMARK  222  A    between atoms: _543  and  _545
REMARK  223  A    between atoms: _545  and  _546
REMARK  224  A    between atoms: _545  and  _548
REMARK  225  A    between atoms: _548  and  _549
REMARK  226  A    between atoms: _554  and  _556
REMARK  227  A    between atoms: _556  and  _557
REMARK  228  A    between atoms: _556  and  _559
REMARK  229  A    between atoms: _561  and  _563
REMARK  230  A    between atoms: _563  and  _564
REMARK  231  A    between atoms: _563  and  _566
REMARK  232  A    between atoms: _566  and  _567
REMARK  233  A    between atoms: _567  and  _568
REMARK  234  A    between atoms: _570  and  _572
REMARK  235  A    between atoms: _572  and  _573
REMARK  236  A    between atoms: _572  and  _575
REMARK  237  A    between atoms: _575  and  _576
REMARK  238  A    between atoms: _579  and  _581
REMARK  239  A    between atoms: _581  and  _582
REMARK  240  A    between atoms: _581  and  _584
REMARK  241  A    between atoms: _584  and  _585
REMARK  242  A    between atoms: _585  and  _586
REMARK  243  A    between atoms: _586  and  _587
REMARK  244  A    between atoms: _587  and  _588
REMARK  245  A    between atoms: _592  and  _594
REMARK  246  A    between atoms: _594  and  _595
REMARK  247  A    between atoms: _594  and  _597
REMARK  248  A    between atoms: _600  and  _602
REMARK  249  A    between atoms: _602  and  _603
REMARK  250  A    between atoms: _606  and  _608
REMARK  251  A    between atoms: _608  and  _609
REMARK  252  A    between atoms: _608  and  _611
REMARK  253  A    between atoms: _611  and  _612
REMARK  254  A    between atoms: _615  and  _617
REMARK  255  A    between atoms: _617  and  _618
REMARK  256  A    between atoms: _617  and  _620
REMARK  257  A    between atoms: _620  and  _621
REMARK  258  A    between atoms: _627  and  _629
REMARK  259  A    between atoms: _629  and  _630
REMARK                            x       y       z     vdW  Elec       q    Type
REMARK                         _______ _______ _______ _____ _____    ______ ____
ROOT
ATOM      1  CA  VAL A   1      36.871   3.819 -10.630  0.00  0.00    +0.133 C 
ENDROOT
BRANCH   1   2
ATOM      2  CB  VAL A   1      35.687   3.280  -9.767  0.00  0.00    +0.023 C 
ATOM      3  CG2 VAL A   1      36.015   1.906  -9.174  0.00  0.00    +0.002 C 
ATOM      4  CG1 VAL A   1      34.407   3.204 -10.589  0.00  0.00    +0.002 C 
ENDBRANCH   1   2
BRANCH   1   5
ATOM      5  N   VAL A   1      38.157   3.622  -9.947  0.00  0.00    -0.239 NA
ATOM      6  H   VAL A   1      38.212   3.819  -8.927  0.00  0.00    +0.142 HD
ENDBRANCH   1   5
BRANCH   1   7
ATOM      7  C   VAL A   1      36.625   5.298 -10.966  0.00  0.00    +0.224 C 
ATOM      8  O   VAL A   1      35.782   5.626 -11.803  0.00  0.00    -0.287 OA
ENDBRANCH   1   7
TORSDOF 3
REMARK  Name = ../refined-set-2016/3u6h/3u6h_pocket.pdb
REMARK  259 active torsions:
REMARK  status: ('A' for Active; 'I' for Inactive)
REMARK    1  A    between atoms: _1  and  _3
REMARK    2  A    between atoms: _3  and  _4
REMARK    3  A    between atoms: _3  and  _6
REMARK    4  A    between atoms: _9  and  _11
REMARK    5  A    between atoms: _11  and  _12
REMARK    6  A    between atoms: _11  and  _14
REMARK    7  A    between atoms: _17  and  _19
REMARK    8  A    between atoms: _19  and  _20
REMARK    9  A    between atoms: _19  and  _22
REMARK   10  A    between atoms: _22  and  _23
REMARK   11  A    between atoms: _26  and  _28
REMARK   12  A    between atoms: _28  and  _29
REMARK   13  A    between atoms: _31  and  _33
REMARK   14  A    between atoms: _33  and  _34
REMARK   15  A    between atoms: _33  and  _36
REMARK   16  A    between atoms: _36  and  _37
REMARK   17  A    between atoms: _37  and  _38
REMARK   18  A    between atoms: _38  and  _39
REMARK   19  A    between atoms: _48  and  _50
REMARK   20  A    between atoms: _50  and  _51
REMARK   21  A    between atoms: _53  and  _55
REMARK   22  A    between atoms: _55  and  _56
REMARK   23  A    between atoms: _55  and  _58
REMARK   24  A    between atoms: _58  and  _59
REMARK   25  A    between atoms: _64  and  _66
REMARK   26  A    between atoms: _66  and  _67
REMARK   27  A    between atoms: _66  and  _69
REMARK   28  A    between atoms: _69  and  _70
REMARK   29  A    between atoms: _76  and  _78
REMARK   30  A    between atoms: _78  and  _79
REMARK   31  A    between atoms: _81  and  _83
REMARK   32  A    between atoms: _83  and  _84
REMARK   33  A    between atoms: _83  and  _86
REMARK   34  A    between atoms: _88  and  _90
REMARK   35  A    between atoms: _90  and  _91
REMARK   36  A    between atoms: _90  and  _93
REMARK   37  A    between atoms: _96  and  _98
REMARK   38  A    between atoms: _98  and  _99
REMARK   39  A    between atoms: _98  and  _101
REMARK   40  A    between atoms: _101  and  _102
REMARK   41  A    between atoms: _107  and  _108
REMARK   42  A    between atoms: _110  and  _112
REMARK   43  A    between atoms: _112  and  _113
REMARK   44  A    between atoms: _112  and  _115
REMARK   45  A    between atoms: _115  and  _116
REMARK   46  A    between atoms: _121  and  _123
REMARK   47  A    between atoms: _123  and  _124
REMARK   48  A    between atoms: _123  and  _126
REMARK   49  A    between atoms: _126  and  _127
REMARK   50  A    between atoms: _132  and  _134
REMARK   51  A    between atoms: _134  and  _135
REMARK   52  A    between atoms: _134  and  _137
REMARK   53  A    between atoms: _139  and  _141
REMARK   54  A    between atoms: _141  and  _142
REMARK   55  A    between atoms: _145  and  _147
REMARK   56  A    between atoms: _147  and  _148
REMARK   57  A    between atoms: _147  and  _150
REMARK   58  A    between atoms: _153  and  _155
REMARK   59  A    between atoms: _155  and  _156
REMARK   60  A    between atoms: _155  and  _158
REMARK   61  A    between atoms: _158  and  _159
REMARK   62  A    between atoms: _159  and  _160
REMARK   63  A    between atoms: _160  and  _161
REMARK   64  A    between atoms: _161  and  _162
REMARK   65  A    between atoms: _166  and  _168
REMARK   66  A    between atoms: _168  and  _169
REMARK   67  A    between atoms: _168  and  _171
REMARK   68  A    between atoms: _171  and  _172
REMARK   69  A    between atoms: _174  and  _176
REMARK   70  A    between atoms: _176  and  _177
REMARK   71  A    between atoms: _176  and  _179
REMARK   72  A    between atoms: _179  and  _180
REMARK   73  A    between atoms: _183  and  _185
REMARK   74  A    between atoms: _185  and  _186
REMARK   75  A    between atoms: _185  and  _188
REMARK   76  A    between atoms: _188  and  _189
REMARK   77  A    between atoms: _192  and  _194
REMARK   78  A    between atoms: _194  and  _195
REMARK   79  A    between atoms: _194  and  _197
REMARK   80  A    between atoms: _197  and  _198
REMARK   81  A    between atoms: _198  and  _199
REMARK   82  A    between atoms: _202  and  _204
REMARK   83  A    between atoms: _204  and  _205
REMARK   84  A    between atoms: _204  and  _207
REMARK   85  A    between atoms: _210  and  _212
REMARK   86  A    between atoms: _212  and  _213
REMARK   87  A    between atoms: _212  and  _215
REMARK   88  A    between atoms: _215  and  _216
REMARK   89  A    between atoms: _216  and  _217
REMARK   90  A    between atoms: _222  and  _224
REMARK   91  A    between atoms: _224  and  _225
REMARK   92  A    between atoms: _224  and  _227
REMARK   93  A    between atoms: _227  and  _228
REMARK   94  A    between atoms: _234  and  _236
REMARK   95  A    between atoms: _236  and  _237
REMARK   96  A    between atoms: _236  and  _239
REMARK   97  A    between atoms: _239  and  _240
REMARK   98  A    between atoms: _243  and  _245
REMARK   99  A    between atoms: _245  and  _246
REMARK  100  A    between atoms: _245  and  _248
REMARK  101  A    between atoms: _248  and  _249
REMARK  102  A    between atoms: _252  and  _254
REMARK  103  A    between atoms: _254  and  _255
REMARK  104  A    between atoms: _254  and  _257
REMARK  105  A    between atoms: _257  and  _258
REMARK  106  A    between atoms: _258  and  _259
REMARK  107  A    between atoms: _262  and  _264
REMARK  108  A    between atoms: _264  and  _265
REMARK  109  A    between atoms: _267  and  _269
REMARK  110  A    between atoms: _269  and  _270
REMARK  111  A    between atoms: _269  and  _272
REMARK  112  A    between atoms: _272  and  _273
REMARK  113  A    between atoms: _276  and  _278
REMARK  114  A    between atoms: _278  and  _279
REMARK  115  A    between atoms: _278  and  _281
REMARK  116  A    between atoms: _281  and  _282
REMARK  117  A    between atoms: _285  and  _287
REMARK  118  A    between atoms: _287  and  _288
REMARK  119  A    between atoms: _287  and  _290
REMARK  120  A    between atoms: _290  and  _291
REMARK  121  A    between atoms: _291  and  _292
REMARK  122  A    between atoms: _294  and  _296
REMARK  123  A    between atoms: _296  and  _297
REMARK  124  A    between atoms: _296  and  _299
REMARK  125  A    between atoms: _299  and  _300
REMARK  126  A    between atoms: _300  and  _301
REMARK  127  A    between atoms: _301  and  _302
REMARK  128  A    between atoms: _302  and  _303
REMARK  129  A    between atoms: _307  and  _309
REMARK  130  A    between atoms: _309  and  _310
REMARK  131  A    between atoms: _309  and  _312
REMARK  132  A    between atoms: _312  and  _313
REMARK  133  A    between atoms: _319  and  _321
REMARK  134  A    between atoms: _321  and  _322
REMARK  135  A    between atoms: _321  and  _324
REMARK  136  A    between atoms: _327  and  _329
REMARK  137  A    between atoms: _329  and  _330
REMARK  138  A    between atoms: _329  and  _332
REMARK  139  A    between atoms: _332  and  _333
REMARK  140  A    between atoms: _336  and  _338
REMARK  141  A    between atoms: _338  and  _339
REMARK  142  A    between atoms: _338  and  _341
REMARK  143  A    between atoms: _341  and  _342
REMARK  144  A    between atoms: _344  and  _346
REMARK  145  A    between atoms: _346  and  _347
REMARK  146  A    between atoms: _346  and  _349
REMARK  147  A    between atoms: _349  and  _350
REMARK  148  A    between atoms: _353  and  _355
REMARK  149  A    between atoms: _355  and  _356
REMARK  150  A    between atoms: _358  and  _360
REMARK  151  A    between atoms: _360  and  _361
REMARK  152  A    between atoms: _360  and  _363
REMARK  153  A    between atoms: _363  and  _364
REMARK  154  A    between atoms: _367  and  _369
REMARK  155  A    between atoms: _369  and  _370
REMARK  156  A    between atoms: _369  and  _372
REMARK  157  A    between atoms: _375  and  _376
REMARK  158  A    between atoms: _381  and  _383
REMARK  159  A    between atoms: _383  and  _384
REMARK  160  A    between atoms: _383  and  _386
REMARK  161  A    between atoms: _386  and  _387
REMARK  162  A    between atoms: _390  and  _392
REMARK  163  A    between atoms: _392  and  _393
REMARK  164  A    between atoms: _392  and  _395
REMARK  165  A    between atoms: _398  and  _400
REMARK  166  A    between atoms: _400  and  _401
REMARK  167  A    between atoms: _400  and  _403
REMARK  168  A    between atoms: _406  and  _408
REMARK  169  A    between atoms: _408  and  _409
REMARK  170  A    between atoms: _408  and  _411
REMARK  171  A    between atoms: _411  and  _412
REMARK  172  A    between atoms: _416  and  _417
REMARK  173  A    between atoms: _422  and  _424
REMARK  174  A    between atoms: _424  and  _425
REMARK  175  A    between atoms: _424  and  _427
REMARK  176  A    between atoms: _427  and  _428
REMARK  177  A    between atoms: _433  and  _434
REMARK  178  A    between atoms: _436  and  _438
REMARK  179  A    between atoms: _438  and  _439
REMARK  180  A    between atoms: _438  and  _441
REMARK  181  A    between atoms: _441  and  _442
REMARK  182  A    between atoms: _442  and  _443
REMARK  183  A    between atoms: _445  and  _447
REMARK  184  A    between atoms: _447  and  _448
REMARK  185  A    between atoms: _447  and  _450
REMARK  186  A    between atoms: _450  and  _451
REMARK  187  A    between atoms: _451  and  _452
REMARK  188  A    between atoms: _452  and  _453
REMARK  189  A    between atoms: _453  and  _454
REMARK  190  A    between atoms: _458  and  _460
REMARK  191  A    between atoms: _460  and  _461
REMARK  192  A    between atoms: _460  and  _463
REMARK  193  A    between atoms: _463  and  _464
REMARK  194  A    between atoms: _469  and  _471
REMARK  195  A    between atoms: _471  and  _472
REMARK  196  A    between atoms: _474  and  _476
REMARK  197  A    between atoms: _476  and  _477
REMARK  198  A    between atoms: _476  and  _479
REMARK  199  A    between atoms: _479  and  _480
REMARK  200  A    between atoms: _483  and  _485
REMARK  201  A    between atoms: _485  and  _486
REMARK  202  A    between atoms: _485  and  _488
REMARK  203  A    between atoms: _488  and  _489
REMARK  204  A    between atoms: _494  and  _496
REMARK  205  A    between atoms: _496  and  _497
REMARK  206  A    between atoms: _496  and  _499
REMARK  207  A    between atoms: _499  and  _500
REMARK  208  A    between atoms: _503  and  _505
REMARK  209  A    between atoms: _505  and  _506
REMARK  210  A    between atoms: _505  and  _508
REMARK  211  A    between atoms: _508  and  _509
REMARK  212  A    between atoms: _515  and  _517
REMARK  213  A    between atoms: _517  and  _518
REMARK  214  A    between atoms: _517  and  _520
REMARK  215  A    between atoms: _520  and  _521
REMARK  216  A    between atoms: _526  and  _528
REMARK  217  A    between atoms: _528  and  _529
REMARK  218  A    between atoms: _528  and  _531
REMARK  219  A    between atoms: _531  and  _532
REMARK  220  A    between atoms: _532  and  _533
REMARK  221  A    between atoms: _533  and  _534
REMARK  222  A    between atoms: _543  and  _545
REMARK  223  A    between atoms: _545  and  _546
REMARK  224  A    between atoms: _545  and  _548
REMARK  225  A    between atoms: _548  and  _549
REMARK  226  A    between atoms: _554  and  _556
REMARK  227  A    between atoms: _556  and  _557
REMARK  228  A    between atoms: _556  and  _559
REMARK  229  A    between atoms: _561  and  _563
REMARK  230  A    between atoms: _563  and  _564
REMARK  231  A    between atoms: _563  and  _566
REMARK  232  A    between atoms: _566  and  _567
REMARK  233  A    between atoms: _567  and  _568
REMARK  234  A    between atoms: _570  and  _572
REMARK  235  A    between atoms: _572  and  _573
REMARK  236  A    between atoms: _572  and  _575
REMARK  237  A    between atoms: _575  and  _576
REMARK  238  A    between atoms: _579  and  _581
REMARK  239  A    between atoms: _581  and  _582
REMARK  240  A    between atoms: _581  and  _584
REMARK  241  A    between atoms: _584  and  _585
REMARK  242  A    between atoms: _585  and  _586
REMARK  243  A    between atoms: _586  and  _587
REMARK  244  A    between atoms: _587  and  _588
REMARK  245  A    between atoms: _592  and  _594
REMARK  246  A    between atoms: _594  and  _595
REMARK  247  A    between atoms: _594  and  _597
REMARK  248  A    between atoms: _600  and  _602
REMARK  249  A    between atoms: _602  and  _603
REMARK  250  A    between atoms: _606  and  _608
REMARK  251  A    between atoms: _608  and  _609
REMARK  252  A    between atoms: _608  and  _611
REMARK  253  A    between atoms: _611  and  _612
REMARK  254  A    between atoms: _615  and  _617
REMARK  255  A    between atoms: _617  and  _618
REMARK  256  A    between atoms: _617  and  _620
REMARK  257  A    between atoms: _620  and  _621
REMARK  258  A    between atoms: _627  and  _629
REMARK  259  A    between atoms: _629  and  _630
REMARK                            x       y       z     vdW  Elec       q    Type
REMARK                         _______ _______ _______ _____ _____    ______ ____
ROOT
ATOM      1  C   HIS A   6      14.895   6.157 -16.722  0.00  0.00    +0.241 C 
ATOM      2  O   HIS A   6      14.883   5.660 -15.586  0.00  0.00    -0.273 OA
ATOM      3  N   PHE A   7      16.017   6.449 -17.382  0.00  0.00    -0.297 N 
ATOM      4  H   PHE A   7      15.944   6.846 -18.341  0.00  0.00    +0.150 HD
ENDROOT
BRANCH   3   5
ATOM      5  CA  PHE A   7      17.346   6.233 -16.810  0.00  0.00    +0.153 C 
BRANCH   5   6
ATOM      6  C   PHE A   7      17.832   7.432 -15.995  0.00  0.00    +0.241 C 
ATOM      7  O   PHE A   7      18.985   7.472 -15.574  0.00  0.00    -0.273 OA
ATOM      8  N   GLY A   8      16.945   8.400 -15.779  0.00  0.00    -0.295 N 
ATOM      9  H   GLY A   8      16.006   8.326 -16.220  0.00  0.00    +0.150 HD
BRANCH   8  10
ATOM     10  CA  GLY A   8      17.239   9.560 -14.948  0.00  0.00    +0.176 C 
BRANCH  10  11
ATOM     11  C   GLY A   8      17.727  10.760 -15.736  0.00  0.00    +0.243 C 
ATOM     12  N   CYS A   9      18.425  11.654 -15.041  0.00  0.00    -0.296 N 
ATOM     13  H   CYS A   9      18.542  11.507 -14.018  0.00  0.00    +0.150 HD
ATOM     14  O   GLY A   8      17.476  10.878 -16.937  0.00  0.00    -0.273 OA
BRANCH  12  15
ATOM     15  CA  CYS A   9      19.033  12.831 -15.651  0.00  0.00    +0.160 C 
BRANCH  15  16
ATOM     16  C   CYS A   9      20.346  12.429 -16.328  0.00  0.00    +0.242 C 
ATOM     17  O   CYS A   9      21.352  12.189 -15.657  0.00  0.00    -0.273 OA
ATOM     18  N   VAL A  10      20.320  12.341 -17.658  0.00  0.00    -0.297 N 
ATOM     19  H   VAL A  10      19.458  12.636 -18.159  0.00  0.00    +0.150 HD
BRANCH  18  20
ATOM     20  CA  VAL A  10      21.455  11.846 -18.446  0.00  0.00    +0.149 C 
BRANCH  20  21
ATOM     21  C   VAL A  10      21.895  12.881 -19.486  0.00  0.00    +0.241 C 
ATOM     22  N   TYR A  11      23.194  13.159 -19.522  0.00  0.00    -0.297 N 
ATOM     23  H   TYR A  11      23.828  12.655 -18.869  0.00  0.00    +0.150 HD
ATOM     24  O   VAL A  10      21.074  13.402 -20.239  0.00  0.00    -0.273 OA
BRANCH  22  25
ATOM     25  CA  TYR A  11      23.771  14.140 -20.437  0.00  0.00    +0.153 C 
BRANCH  25  26
ATOM     26  C   TYR A  11      24.708  13.462 -21.425  0.00  0.00    +0.241 C 
ATOM     27  O   TYR A  11      25.172  12.346 -21.177  0.00  0.00    -0.273 OA
ATOM     28  N   HIS A  12      24.994  14.140 -22.539  0.00  0.00    -0.298 N 
ATOM     29  H   HIS A  12      24.448  14.995 -22.769  0.00  0.00    +0.150 HD
BRANCH  28  30
ATOM     30  CA  HIS A  12      26.056  13.708 -23.441  0.00  0.00    +0.143 C 
BRANCH  30  31
ATOM     31  C   HIS A  12      27.404  14.044 -22.823  0.00  0.00    +0.227 C 
ATOM     32  O   HIS A  12      27.564  15.065 -22.159  0.00  0.00    -0.286 OA
ENDBRANCH  30  31
BRANCH  30  33
ATOM     33  CB  HIS A  12      25.949  14.388 -24.810  0.00  0.00    +0.075 C 
BRANCH  33  34
ATOM     34  CG  HIS A  12      24.882  13.816 -25.690  0.00  0.00    +0.082 A 
ATOM     35  CD2 HIS A  12      23.575  14.139 -25.831  0.00  0.00    +0.115 A 
ATOM     36  NE2 HIS A  12      23.048  13.299 -26.781  0.00  0.00    -0.221 NA
ATOM     37  CE1 HIS A  12      24.000  12.489 -27.212  0.00  0.00    +0.199 A 
ATOM     38  ND1 HIS A  12      25.117  12.781 -26.570  0.00  0.00    -0.227 NA
ENDBRANCH  33  34
ENDBRANCH  30  33
ENDBRANCH  28  30
ENDBRANCH  25  26
BRANCH  25  39
ATOM     39  CB  TYR A  11      24.562  15.197 -19.660  0.00  0.00    +0.055 C 
BRANCH  39  40
ATOM     40  CG  TYR A  11      23.795  15.905 -18.565  0.00  0.00    -0.020 A 
ATOM     41  CD2 TYR A  11      23.946  15.531 -17.232  0.00  0.00    -0.001 A 
ATOM     42  CE2 TYR A  11      23.244  16.186 -16.215  0.00  0.00    +0.036 A 
ATOM     43  CZ  TYR A  11      22.392  17.227 -16.539  0.00  0.00    +0.134 A 
ATOM     44  CE1 TYR A  11      22.231  17.618 -17.859  0.00  0.00    +0.036 A 
ATOM     45  CD1 TYR A  11      22.930  16.959 -18.861  0.00  0.00    -0.001 A 
BRANCH  43  46
ATOM     46  OH  TYR A  11      21.700  17.886 -15.549  0.00  0.00    -0.506 OA
ATOM     47  HH  TYR A  11      21.924  17.488 -14.671  0.00  0.00    +0.292 HD
ENDBRANCH  43  46
ENDBRANCH  39  40
ENDBRANCH  25  39
ENDBRANCH  22  25
ENDBRANCH  20  21
BRANCH  20  48
ATOM     48  CB  VAL A  10      21.129  10.497 -19.166  0.00  0.00    +0.027 C 
ATOM     49  CG2 VAL A  10      20.413   9.512 -18.230  0.00  0.00    +0.002 C 
ATOM     50  CG1 VAL A  10      22.391   9.859 -19.725  0.00  0.00    +0.002 C 
ENDBRANCH  20  48
ENDBRANCH  18  20
ENDBRANCH  15  16
BRANCH  15  51
ATOM     51  CB  CYS A   9      19.267  13.902 -14.578  0.00  0.00    +0.098 C 
ATOM     52  SG  CYS A   9      19.868  15.479 -15.205  0.00  0.00    -0.080 S 
ENDBRANCH  15  51
ENDBRANCH  12  15
ENDBRANCH  10  11
ENDBRANCH   8  10
ENDBRANCH   5   6
BRANCH   5  53
ATOM     53  CB  PHE A   7      18.360   5.894 -17.910  0.00  0.00    +0.055 C 
BRANCH  53  54
ATOM     54  CG  PHE A   7      18.087   4.593 -18.610  0.00  0.00    -0.020 A 
ATOM     55  CD2 PHE A   7      18.328   3.383 -17.973  0.00  0.00    -0.004 A 
ATOM     56  CE2 PHE A   7      18.076   2.176 -18.617  0.00  0.00    -0.000 A 
ATOM     57  CZ  PHE A   7      17.583   2.174 -19.912  0.00  0.00    -0.000 A 
ATOM     58  CE1 PHE A   7      17.340   3.377 -20.563  0.00  0.00    -0.000 A 
ATOM     59  CD1 PHE A   7      17.589   4.580 -19.908  0.00  0.00    -0.004 A 
ENDBRANCH  53  54
ENDBRANCH   5  53
ENDBRANCH   3   5
BRANCH   1  60
ATOM     60  CA  HIS A   6      13.585   6.483 -17.451  0.00  0.00    +0.155 C 
BRANCH  60  63
ATOM     61  C   GLY A   5      13.746   8.903 -17.366  0.00  0.00    +0.243 C 
ATOM     62  O   GLY A   5      13.645   8.890 -16.136  0.00  0.00    -0.273 OA
ATOM     63  N   HIS A   6      13.660   7.795 -18.100  0.00  0.00    -0.297 N 
ATOM     64  H   HIS A   6      13.646   7.861 -19.138  0.00  0.00    +0.150 HD
BRANCH  61  65
ATOM     65  CA  GLY A   5      13.980  10.219 -18.091  0.00  0.00    +0.176 C 
BRANCH  65  67
ATOM     66  C   ARG A   4      12.979  10.913 -20.198  0.00  0.00    +0.241 C 
ATOM     67  N   GLY A   5      13.912  10.217 -19.552  0.00  0.00    -0.295 N 
ATOM     68  H   GLY A   5      14.604   9.663 -20.095  0.00  0.00    +0.150 HD
ATOM     69  O   ARG A   4      12.061  11.497 -19.612  0.00  0.00    -0.273 OA
BRANCH  66  70
ATOM     70  CA  ARG A   4      13.075  10.954 -21.729  0.00  0.00    +0.149 C 
BRANCH  70  72
ATOM     71  C   GLY A   3      15.269  11.190 -22.831  0.00  0.00    +0.243 C 
ATOM     72  N   ARG A   4      14.347  10.430 -22.237  0.00  0.00    -0.297 N 
ATOM     73  H   ARG A   4      14.540   9.414 -22.129  0.00  0.00    +0.150 HD
ATOM     74  O   GLY A   3      15.190  12.420 -22.920  0.00  0.00    -0.273 OA
BRANCH  71  75
ATOM     75  CA  GLY A   3      16.452  10.433 -23.416  0.00  0.00    +0.176 C 
BRANCH  75  78
ATOM     76  C   ILE A   2      18.587  11.509 -22.903  0.00  0.00    +0.241 C 
ATOM     77  O   ILE A   2      18.397  11.455 -21.686  0.00  0.00    -0.273 OA
ATOM     78  N   GLY A   3      17.654  11.180 -23.792  0.00  0.00    -0.295 N 
ATOM     79  H   GLY A   3      17.782  11.462 -24.785  0.00  0.00    +0.150 HD
BRANCH  76  80
ATOM     80  CA  ILE A   2      19.923  12.017 -23.463  0.00  0.00    +0.148 C 
BRANCH  80  82
ATOM     81  C   VAL A   1      20.276  14.433 -23.456  0.00  0.00    +0.238 C 
ATOM     82  N   ILE A   2      20.256  13.270 -22.817  0.00  0.00    -0.297 N 
ATOM     83  H   ILE A   2      20.491  13.258 -21.804  0.00  0.00    +0.150 HD
ATOM     84  O   VAL A   1      20.157  14.541 -24.684  0.00  0.00    -0.274 OA
BRANCH  81  85
ATOM     85  CA  VAL A   1      20.457  15.661 -22.561  0.00  0.00    +0.145 C 
BRANCH  85  86
ATOM     86  CB  VAL A   1      19.105  15.968 -21.832  0.00  0.00    +0.025 C 
ATOM     87  CG2 VAL A   1      19.236  17.175 -20.903  0.00  0.00    +0.002 C 
ATOM     88  CG1 VAL A   1      17.976  16.186 -22.833  0.00  0.00    +0.002 C 
ENDBRANCH  85  86
BRANCH  85  89
ATOM     89  N   VAL A   1      20.953  16.820 -23.291  0.00  0.00    -0.238 NA
ATOM     90  H   VAL A   1      20.268  17.399 -23.818  0.00  0.00    +0.142 HD
ENDBRANCH  85  89
ENDBRANCH  81  85
ENDBRANCH  80  82
BRANCH  80  91
ATOM     91  CB  ILE A   2      21.048  10.959 -23.240  0.00  0.00    +0.027 C 
ATOM     92  CG2 ILE A   2      20.572   9.580 -23.612  0.00  0.00    +0.002 C 
BRANCH  91  93
ATOM     93  CG1 ILE A   2      22.297  11.308 -24.058  0.00  0.00    +0.002 C 
ATOM     94  CD1 ILE A   2      23.539  10.530 -23.671  0.00  0.00    +0.000 C 
ENDBRANCH  91  93
ENDBRANCH  80  91
ENDBRANCH  76  80
ENDBRANCH  75  78
ENDBRANCH  71  75
ENDBRANCH  70  72
BRANCH  70  95
ATOM     95  CB  ARG A   4      11.901  10.189 -22.362  0.00  0.00    +0.033 C 
BRANCH  95  96
ATOM     96  CG  ARG A   4      10.516  10.790 -22.103  0.00  0.00    +0.045 C 
BRANCH  96  97
ATOM     97  CD  ARG A   4       9.426  10.094 -22.923  0.00  0.00    +0.174 C 
BRANCH  97  98
ATOM     98  NE  ARG A   4       9.031   8.799 -22.366  0.00  0.00    -0.265 N 
ATOM     99  CZ  ARG A   4       8.002   8.608 -21.540  0.00  0.00    +0.342 C 
ATOM    100  NH2 ARG A   4       7.726   7.385 -21.099  0.00  0.00    -0.292 N 
ATOM    101 HH21 ARG A   4       6.924   7.233 -20.455  0.00  0.00    +0.255 HD
ATOM    102 HH22 ARG A   4       8.312   6.580 -21.398  0.00  0.00    +0.255 HD
ATOM    103  NH1 ARG A   4       7.245   9.631 -21.149  0.00  0.00    -0.292 N 
ATOM    104 HH11 ARG A   4       6.445   9.469 -20.504  0.00  0.00    +0.255 HD
ATOM    105 HH12 ARG A   4       7.454  10.592 -21.488  0.00  0.00    +0.255 HD
ATOM    106  HE  ARG A   4       9.594   7.967 -22.634  0.00  0.00    +0.259 HD
ENDBRANCH  97  98
ENDBRANCH  96  97
ENDBRANCH  95  96
ENDBRANCH  70  95
ENDBRANCH  66  70
ENDBRANCH  65  67
ENDBRANCH  61  65
ENDBRANCH  60  63
BRANCH  60 107
ATOM    107  CB  HIS A   6      13.231   5.372 -18.445  0.00  0.00    +0.076 C 
BRANCH 107 108
ATOM    108  CG  HIS A   6      13.451   3.993 -17.900  0.00  0.00    +0.082 A 
ATOM    109  ND1 HIS A   6      12.658   3.451 -16.910  0.00  0.00    -0.227 NA
ATOM    110  CE1 HIS A   6      13.096   2.240 -16.612  0.00  0.00    +0.199 A 
ATOM    111  NE2 HIS A   6      14.148   1.980 -17.369  0.00  0.00    -0.221 NA
ATOM    112  CD2 HIS A   6      14.394   3.062 -18.179  0.00  0.00    +0.115 A 
ENDBRANCH 107 108
ENDBRANCH  60 107
ENDBRANCH   1  60
TORSDOF 42
REMARK  Name = ../refined-set-2016/3u6h/3u6h_pocket.pdb
REMARK  259 active torsions:
REMARK  status: ('A' for Active; 'I' for Inactive)
REMARK    1  A    between atoms: _1  and  _3
REMARK    2  A    between atoms: _3  and  _4
REMARK    3  A    between atoms: _3  and  _6
REMARK    4  A    between atoms: _9  and  _11
REMARK    5  A    between atoms: _11  and  _12
REMARK    6  A    between atoms: _11  and  _14
REMARK    7  A    between atoms: _17  and  _19
REMARK    8  A    between atoms: _19  and  _20
REMARK    9  A    between atoms: _19  and  _22
REMARK   10  A    between atoms: _22  and  _23
REMARK   11  A    between atoms: _26  and  _28
REMARK   12  A    between atoms: _28  and  _29
REMARK   13  A    between atoms: _31  and  _33
REMARK   14  A    between atoms: _33  and  _34
REMARK   15  A    between atoms: _33  and  _36
REMARK   16  A    between atoms: _36  and  _37
REMARK   17  A    between atoms: _37  and  _38
REMARK   18  A    between atoms: _38  and  _39
REMARK   19  A    between atoms: _48  and  _50
REMARK   20  A    between atoms: _50  and  _51
REMARK   21  A    between atoms: _53  and  _55
REMARK   22  A    between atoms: _55  and  _56
REMARK   23  A    between atoms: _55  and  _58
REMARK   24  A    between atoms: _58  and  _59
REMARK   25  A    between atoms: _64  and  _66
REMARK   26  A    between atoms: _66  and  _67
REMARK   27  A    between atoms: _66  and  _69
REMARK   28  A    between atoms: _69  and  _70
REMARK   29  A    between atoms: _76  and  _78
REMARK   30  A    between atoms: _78  and  _79
REMARK   31  A    between atoms: _81  and  _83
REMARK   32  A    between atoms: _83  and  _84
REMARK   33  A    between atoms: _83  and  _86
REMARK   34  A    between atoms: _88  and  _90
REMARK   35  A    between atoms: _90  and  _91
REMARK   36  A    between atoms: _90  and  _93
REMARK   37  A    between atoms: _96  and  _98
REMARK   38  A    between atoms: _98  and  _99
REMARK   39  A    between atoms: _98  and  _101
REMARK   40  A    between atoms: _101  and  _102
REMARK   41  A    between atoms: _107  and  _108
REMARK   42  A    between atoms: _110  and  _112
REMARK   43  A    between atoms: _112  and  _113
REMARK   44  A    between atoms: _112  and  _115
REMARK   45  A    between atoms: _115  and  _116
REMARK   46  A    between atoms: _121  and  _123
REMARK   47  A    between atoms: _123  and  _124
REMARK   48  A    between atoms: _123  and  _126
REMARK   49  A    between atoms: _126  and  _127
REMARK   50  A    between atoms: _132  and  _134
REMARK   51  A    between atoms: _134  and  _135
REMARK   52  A    between atoms: _134  and  _137
REMARK   53  A    between atoms: _139  and  _141
REMARK   54  A    between atoms: _141  and  _142
REMARK   55  A    between atoms: _145  and  _147
REMARK   56  A    between atoms: _147  and  _148
REMARK   57  A    between atoms: _147  and  _150
REMARK   58  A    between atoms: _153  and  _155
REMARK   59  A    between atoms: _155  and  _156
REMARK   60  A    between atoms: _155  and  _158
REMARK   61  A    between atoms: _158  and  _159
REMARK   62  A    between atoms: _159  and  _160
REMARK   63  A    between atoms: _160  and  _161
REMARK   64  A    between atoms: _161  and  _162
REMARK   65  A    between atoms: _166  and  _168
REMARK   66  A    between atoms: _168  and  _169
REMARK   67  A    between atoms: _168  and  _171
REMARK   68  A    between atoms: _171  and  _172
REMARK   69  A    between atoms: _174  and  _176
REMARK   70  A    between atoms: _176  and  _177
REMARK   71  A    between atoms: _176  and  _179
REMARK   72  A    between atoms: _179  and  _180
REMARK   73  A    between atoms: _183  and  _185
REMARK   74  A    between atoms: _185  and  _186
REMARK   75  A    between atoms: _185  and  _188
REMARK   76  A    between atoms: _188  and  _189
REMARK   77  A    between atoms: _192  and  _194
REMARK   78  A    between atoms: _194  and  _195
REMARK   79  A    between atoms: _194  and  _197
REMARK   80  A    between atoms: _197  and  _198
REMARK   81  A    between atoms: _198  and  _199
REMARK   82  A    between atoms: _202  and  _204
REMARK   83  A    between atoms: _204  and  _205
REMARK   84  A    between atoms: _204  and  _207
REMARK   85  A    between atoms: _210  and  _212
REMARK   86  A    between atoms: _212  and  _213
REMARK   87  A    between atoms: _212  and  _215
REMARK   88  A    between atoms: _215  and  _216
REMARK   89  A    between atoms: _216  and  _217
REMARK   90  A    between atoms: _222  and  _224
REMARK   91  A    between atoms: _224  and  _225
REMARK   92  A    between atoms: _224  and  _227
REMARK   93  A    between atoms: _227  and  _228
REMARK   94  A    between atoms: _234  and  _236
REMARK   95  A    between atoms: _236  and  _237
REMARK   96  A    between atoms: _236  and  _239
REMARK   97  A    between atoms: _239  and  _240
REMARK   98  A    between atoms: _243  and  _245
REMARK   99  A    between atoms: _245  and  _246
REMARK  100  A    between atoms: _245  and  _248
REMARK  101  A    between atoms: _248  and  _249
REMARK  102  A    between atoms: _252  and  _254
REMARK  103  A    between atoms: _254  and  _255
REMARK  104  A    between atoms: _254  and  _257
REMARK  105  A    between atoms: _257  and  _258
REMARK  106  A    between atoms: _258  and  _259
REMARK  107  A    between atoms: _262  and  _264
REMARK  108  A    between atoms: _264  and  _265
REMARK  109  A    between atoms: _267  and  _269
REMARK  110  A    between atoms: _269  and  _270
REMARK  111  A    between atoms: _269  and  _272
REMARK  112  A    between atoms: _272  and  _273
REMARK  113  A    between atoms: _276  and  _278
REMARK  114  A    between atoms: _278  and  _279
REMARK  115  A    between atoms: _278  and  _281
REMARK  116  A    between atoms: _281  and  _282
REMARK  117  A    between atoms: _285  and  _287
REMARK  118  A    between atoms: _287  and  _288
REMARK  119  A    between atoms: _287  and  _290
REMARK  120  A    between atoms: _290  and  _291
REMARK  121  A    between atoms: _291  and  _292
REMARK  122  A    between atoms: _294  and  _296
REMARK  123  A    between atoms: _296  and  _297
REMARK  124  A    between atoms: _296  and  _299
REMARK  125  A    between atoms: _299  and  _300
REMARK  126  A    between atoms: _300  and  _301
REMARK  127  A    between atoms: _301  and  _302
REMARK  128  A    between atoms: _302  and  _303
REMARK  129  A    between atoms: _307  and  _309
REMARK  130  A    between atoms: _309  and  _310
REMARK  131  A    between atoms: _309  and  _312
REMARK  132  A    between atoms: _312  and  _313
REMARK  133  A    between atoms: _319  and  _321
REMARK  134  A    between atoms: _321  and  _322
REMARK  135  A    between atoms: _321  and  _324
REMARK  136  A    between atoms: _327  and  _329
REMARK  137  A    between atoms: _329  and  _330
REMARK  138  A    between atoms: _329  and  _332
REMARK  139  A    between atoms: _332  and  _333
REMARK  140  A    between atoms: _336  and  _338
REMARK  141  A    between atoms: _338  and  _339
REMARK  142  A    between atoms: _338  and  _341
REMARK  143  A    between atoms: _341  and  _342
REMARK  144  A    between atoms: _344  and  _346
REMARK  145  A    between atoms: _346  and  _347
REMARK  146  A    between atoms: _346  and  _349
REMARK  147  A    between atoms: _349  and  _350
REMARK  148  A    between atoms: _353  and  _355
REMARK  149  A    between atoms: _355  and  _356
REMARK  150  A    between atoms: _358  and  _360
REMARK  151  A    between atoms: _360  and  _361
REMARK  152  A    between atoms: _360  and  _363
REMARK  153  A    between atoms: _363  and  _364
REMARK  154  A    between atoms: _367  and  _369
REMARK  155  A    between atoms: _369  and  _370
REMARK  156  A    between atoms: _369  and  _372
REMARK  157  A    between atoms: _375  and  _376
REMARK  158  A    between atoms: _381  and  _383
REMARK  159  A    between atoms: _383  and  _384
REMARK  160  A    between atoms: _383  and  _386
REMARK  161  A    between atoms: _386  and  _387
REMARK  162  A    between atoms: _390  and  _392
REMARK  163  A    between atoms: _392  and  _393
REMARK  164  A    between atoms: _392  and  _395
REMARK  165  A    between atoms: _398  and  _400
REMARK  166  A    between atoms: _400  and  _401
REMARK  167  A    between atoms: _400  and  _403
REMARK  168  A    between atoms: _406  and  _408
REMARK  169  A    between atoms: _408  and  _409
REMARK  170  A    between atoms: _408  and  _411
REMARK  171  A    between atoms: _411  and  _412
REMARK  172  A    between atoms: _416  and  _417
REMARK  173  A    between atoms: _422  and  _424
REMARK  174  A    between atoms: _424  and  _425
REMARK  175  A    between atoms: _424  and  _427
REMARK  176  A    between atoms: _427  and  _428
REMARK  177  A    between atoms: _433  and  _434
REMARK  178  A    between atoms: _436  and  _438
REMARK  179  A    between atoms: _438  and  _439
REMARK  180  A    between atoms: _438  and  _441
REMARK  181  A    between atoms: _441  and  _442
REMARK  182  A    between atoms: _442  and  _443
REMARK  183  A    between atoms: _445  and  _447
REMARK  184  A    between atoms: _447  and  _448
REMARK  185  A    between atoms: _447  and  _450
REMARK  186  A    between atoms: _450  and  _451
REMARK  187  A    between atoms: _451  and  _452
REMARK  188  A    between atoms: _452  and  _453
REMARK  189  A    between atoms: _453  and  _454
REMARK  190  A    between atoms: _458  and  _460
REMARK  191  A    between atoms: _460  and  _461
REMARK  192  A    between atoms: _460  and  _463
REMARK  193  A    between atoms: _463  and  _464
REMARK  194  A    between atoms: _469  and  _471
REMARK  195  A    between atoms: _471  and  _472
REMARK  196  A    between atoms: _474  and  _476
REMARK  197  A    between atoms: _476  and  _477
REMARK  198  A    between atoms: _476  and  _479
REMARK  199  A    between atoms: _479  and  _480
REMARK  200  A    between atoms: _483  and  _485
REMARK  201  A    between atoms: _485  and  _486
REMARK  202  A    between atoms: _485  and  _488
REMARK  203  A    between atoms: _488  and  _489
REMARK  204  A    between atoms: _494  and  _496
REMARK  205  A    between atoms: _496  and  _497
REMARK  206  A    between atoms: _496  and  _499
REMARK  207  A    between atoms: _499  and  _500
REMARK  208  A    between atoms: _503  and  _505
REMARK  209  A    between atoms: _505  and  _506
REMARK  210  A    between atoms: _505  and  _508
REMARK  211  A    between atoms: _508  and  _509
REMARK  212  A    between atoms: _515  and  _517
REMARK  213  A    between atoms: _517  and  _518
REMARK  214  A    between atoms: _517  and  _520
REMARK  215  A    between atoms: _520  and  _521
REMARK  216  A    between atoms: _526  and  _528
REMARK  217  A    between atoms: _528  and  _529
REMARK  218  A    between atoms: _528  and  _531
REMARK  219  A    between atoms: _531  and  _532
REMARK  220  A    between atoms: _532  and  _533
REMARK  221  A    between atoms: _533  and  _534
REMARK  222  A    between atoms: _543  and  _545
REMARK  223  A    between atoms: _545  and  _546
REMARK  224  A    between atoms: _545  and  _548
REMARK  225  A    between atoms: _548  and  _549
REMARK  226  A    between atoms: _554  and  _556
REMARK  227  A    between atoms: _556  and  _557
REMARK  228  A    between atoms: _556  and  _559
REMARK  229  A    between atoms: _561  and  _563
REMARK  230  A    between atoms: _563  and  _564
REMARK  231  A    between atoms: _563  and  _566
REMARK  232  A    between atoms: _566  and  _567
REMARK  233  A    between atoms: _567  and  _568
REMARK  234  A    between atoms: _570  and  _572
REMARK  235  A    between atoms: _572  and  _573
REMARK  236  A    between atoms: _572  and  _575
REMARK  237  A    between atoms: _575  and  _576
REMARK  238  A    between atoms: _579  and  _581
REMARK  239  A    between atoms: _581  and  _582
REMARK  240  A    between atoms: _581  and  _584
REMARK  241  A    between atoms: _584  and  _585
REMARK  242  A    between atoms: _585  and  _586
REMARK  243  A    between atoms: _586  and  _587
REMARK  244  A    between atoms: _587  and  _588
REMARK  245  A    between atoms: _592  and  _594
REMARK  246  A    between atoms: _594  and  _595
REMARK  247  A    between atoms: _594  and  _597
REMARK  248  A    between atoms: _600  and  _602
REMARK  249  A    between atoms: _602  and  _603
REMARK  250  A    between atoms: _606  and  _608
REMARK  251  A    between atoms: _608  and  _609
REMARK  252  A    between atoms: _608  and  _611
REMARK  253  A    between atoms: _611  and  _612
REMARK  254  A    between atoms: _615  and  _617
REMARK  255  A    between atoms: _617  and  _618
REMARK  256  A    between atoms: _617  and  _620
REMARK  257  A    between atoms: _620  and  _621
REMARK  258  A    between atoms: _627  and  _629
REMARK  259  A    between atoms: _629  and  _630
REMARK                            x       y       z     vdW  Elec       q    Type
REMARK                         _______ _______ _______ _____ _____    ______ ____
ROOT
ATOM      1  C   VAL A   4      25.462  11.021 -17.333  0.00  0.00    +0.241 C 
ATOM      2  N   LYS A   5      25.254  10.137 -16.360  0.00  0.00    -0.297 N 
ATOM      3  H   LYS A   5      25.951   9.379 -16.215  0.00  0.00    +0.150 HD
ATOM      4  O   VAL A   4      24.662  11.911 -17.614  0.00  0.00    -0.273 OA
ENDROOT
BRANCH   2   5
ATOM      5  CA  LYS A   5      24.079  10.193 -15.485  0.00  0.00    +0.149 C 
BRANCH   5   6
ATOM      6  C   LYS A   5      24.375  10.943 -14.190  0.00  0.00    +0.241 C 
ATOM      7  O   LYS A   5      25.367  10.659 -13.511  0.00  0.00    -0.273 OA
ATOM      8  N   SER A   6      23.491  11.878 -13.846  0.00  0.00    -0.295 N 
ATOM      9  H   SER A   6      22.685  12.055 -14.479  0.00  0.00    +0.150 HD
BRANCH   8  10
ATOM     10  CA  SER A   6      23.599  12.664 -12.625  0.00  0.00    +0.178 C 
BRANCH  10  11
ATOM     11  C   SER A   6      22.656  12.099 -11.567  0.00  0.00    +0.243 C 
ATOM     12  N   LEU A   7      23.234  11.650 -10.456  0.00  0.00    -0.298 N 
ATOM     13  H   LEU A   7      24.266  11.738 -10.366  0.00  0.00    +0.150 HD
ATOM     14  O   SER A   6      21.441  12.070 -11.758  0.00  0.00    -0.273 OA
BRANCH  12  15
ATOM     15  CA  LEU A   7      22.492  11.040  -9.357  0.00  0.00    +0.137 C 
BRANCH  15  16
ATOM     16  C   LEU A   7      21.971  12.123  -8.426  0.00  0.00    +0.227 C 
ATOM     17  O   LEU A   7      22.496  12.325  -7.328  0.00  0.00    -0.286 OA
ENDBRANCH  15  16
BRANCH  15  18
ATOM     18  CB  LEU A   7      23.381  10.049  -8.595  0.00  0.00    +0.028 C 
BRANCH  18  19
ATOM     19  CG  LEU A   7      23.738   8.686  -9.210  0.00  0.00    +0.002 C 
ATOM     20  CD2 LEU A   7      22.529   7.757  -9.255  0.00  0.00    +0.000 C 
ATOM     21  CD1 LEU A   7      24.361   8.806 -10.585  0.00  0.00    +0.000 C 
ENDBRANCH  18  19
ENDBRANCH  15  18
ENDBRANCH  12  15
ENDBRANCH  10  11
BRANCH  10  22
ATOM     22  CB  SER A   6      23.258  14.131 -12.911  0.00  0.00    +0.166 C 
BRANCH  22  23
ATOM     23  OG  SER A   6      23.558  14.967 -11.806  0.00  0.00    -0.380 OA
ATOM     24  H   SER A   6      23.325  15.903 -12.029  0.00  0.00    +0.211 HD
ENDBRANCH  22  23
ENDBRANCH  10  22
ENDBRANCH   8  10
ENDBRANCH   5   6
BRANCH   5  25
ATOM     25  CB  LYS A   5      23.569   8.781 -15.156  0.00  0.00    +0.029 C 
BRANCH  25  26
ATOM     26  CG  LYS A   5      22.280   8.760 -14.336  0.00  0.00    +0.000 C 
BRANCH  26  27
ATOM     27  CD  LYS A   5      21.959   7.362 -13.833  0.00  0.00    -0.024 C 
BRANCH  27  28
ATOM     28  CE  LYS A   5      20.802   7.375 -12.834  0.00  0.00    -0.086 C 
BRANCH  28  29
ATOM     29  NZ  LYS A   5      20.549   6.005 -12.288  0.00  0.00    +0.380 N 
ATOM     30  HZ1 LYS A   5      19.759   6.043 -11.613  0.00  0.00    -0.089 HD
ATOM     31  HZ2 LYS A   5      21.404   5.662 -11.805  0.00  0.00    -0.089 HD
ATOM     32  HZ3 LYS A   5      20.309   5.361 -13.069  0.00  0.00    -0.089 HD
ENDBRANCH  28  29
ENDBRANCH  27  28
ENDBRANCH  26  27
ENDBRANCH  25  26
ENDBRANCH   5  25
ENDBRANCH   2   5
BRANCH   1  33
ATOM     33  CA  VAL A   4      26.749  10.856 -18.135  0.00  0.00    +0.149 C 
BRANCH  33  36
ATOM     34  C   ALA A   3      26.757   9.283 -19.996  0.00  0.00    +0.241 C 
ATOM     35  O   ALA A   3      27.382   8.439 -19.355  0.00  0.00    -0.273 OA
ATOM     36  N   VAL A   4      26.400  10.461 -19.494  0.00  0.00    -0.297 N 
ATOM     37  H   VAL A   4      25.856  11.119 -20.088  0.00  0.00    +0.150 HD
BRANCH  34  38
ATOM     38  CA  ALA A   3      26.357   9.011 -21.431  0.00  0.00    +0.149 C 
ATOM     39  CB  ALA A   3      25.200   8.001 -21.491  0.00  0.00    +0.031 C 
BRANCH  38  41
ATOM     40  C   CYS A   2      28.229   9.214 -22.969  0.00  0.00    +0.242 C 
ATOM     41  N   ALA A   3      27.527   8.486 -22.104  0.00  0.00    -0.297 N 
ATOM     42  H   ALA A   3      27.828   7.510 -21.905  0.00  0.00    +0.150 HD
ATOM     43  O   CYS A   2      27.840  10.302 -23.407  0.00  0.00    -0.273 OA
BRANCH  40  44
ATOM     44  CA  CYS A   2      29.539   8.581 -23.453  0.00  0.00    +0.160 C 
BRANCH  44  46
ATOM     45  C   HIS A   1      30.685   8.522 -25.581  0.00  0.00    +0.239 C 
ATOM     46  N   CYS A   2      30.155   9.235 -24.594  0.00  0.00    -0.296 N 
ATOM     47  H   CYS A   2      30.181  10.274 -24.639  0.00  0.00    +0.150 HD
ATOM     48  O   HIS A   1      30.762   7.290 -25.546  0.00  0.00    -0.274 OA
BRANCH  45  49
ATOM     49  CA  HIS A   1      31.215   9.308 -26.783  0.00  0.00    +0.151 C 
BRANCH  49  50
ATOM     50  N   HIS A   1      32.570   8.845 -27.096  0.00  0.00    -0.238 NA
ATOM     51  H   HIS A   1      32.724   8.272 -27.950  0.00  0.00    +0.142 HD
ENDBRANCH  49  50
BRANCH  49  52
ATOM     52  CB  HIS A   1      30.278   9.105 -27.985  0.00  0.00    +0.074 C 
BRANCH  52  53
ATOM     53  CG  HIS A   1      29.006   9.904 -27.920  0.00  0.00    +0.082 A 
ATOM     54  CD2 HIS A   1      28.457  10.638 -26.925  0.00  0.00    +0.115 A 
ATOM     55  NE2 HIS A   1      27.281  11.162 -27.405  0.00  0.00    -0.221 NA
ATOM     56  CE1 HIS A   1      27.117  10.771 -28.655  0.00  0.00    +0.199 A 
ATOM     57  ND1 HIS A   1      28.149  10.019 -28.992  0.00  0.00    -0.227 NA
ENDBRANCH  52  53
ENDBRANCH  49  52
ENDBRANCH  45  49
ENDBRANCH  44  46
BRANCH  44  58
ATOM     58  CB  CYS A   2      30.553   8.386 -22.312  0.00  0.00    +0.098 C 
ATOM     59  SG  CYS A   2      31.416   9.848 -21.756  0.00  0.00    -0.080 S 
ENDBRANCH  44  58
ENDBRANCH  40  44
ENDBRANCH  38  41
ENDBRANCH  34  38
ENDBRANCH  33  36
BRANCH  33  60
ATOM     60  CB  VAL A   4      27.595  12.153 -18.121  0.00  0.00    +0.027 C 
ATOM     61  CG2 VAL A   4      28.024  12.517 -16.699  0.00  0.00    +0.002 C 
ATOM     62  CG1 VAL A   4      28.811  12.011 -19.033  0.00  0.00    +0.002 C 
ENDBRANCH  33  60
ENDBRANCH   1  33
TORSDOF 27
REMARK  Name = ../refined-set-2016/3u6h/3u6h_pocket.pdb
REMARK  259 active torsions:
REMARK  status: ('A' for Active; 'I' for Inactive)
REMARK    1  A    between atoms: _1  and  _3
REMARK    2  A    between atoms: _3  and  _4
REMARK    3  A    between atoms: _3  and  _6
REMARK    4  A    between atoms: _9  and  _11
REMARK    5  A    between atoms: _11  and  _12
REMARK    6  A    between atoms: _11  and  _14
REMARK    7  A    between atoms: _17  and  _19
REMARK    8  A    between atoms: _19  and  _20
REMARK    9  A    between atoms: _19  and  _22
REMARK   10  A    between atoms: _22  and  _23
REMARK   11  A    between atoms: _26  and  _28
REMARK   12  A    between atoms: _28  and  _29
REMARK   13  A    between atoms: _31  and  _33
REMARK   14  A    between atoms: _33  and  _34
REMARK   15  A    between atoms: _33  and  _36
REMARK   16  A    between atoms: _36  and  _37
REMARK   17  A    between atoms: _37  and  _38
REMARK   18  A    between atoms: _38  and  _39
REMARK   19  A    between atoms: _48  and  _50
REMARK   20  A    between atoms: _50  and  _51
REMARK   21  A    between atoms: _53  and  _55
REMARK   22  A    between atoms: _55  and  _56
REMARK   23  A    between atoms: _55  and  _58
REMARK   24  A    between atoms: _58  and  _59
REMARK   25  A    between atoms: _64  and  _66
REMARK   26  A    between atoms: _66  and  _67
REMARK   27  A    between atoms: _66  and  _69
REMARK   28  A    between atoms: _69  and  _70
REMARK   29  A    between atoms: _76  and  _78
REMARK   30  A    between atoms: _78  and  _79
REMARK   31  A    between atoms: _81  and  _83
REMARK   32  A    between atoms: _83  and  _84
REMARK   33  A    between atoms: _83  and  _86
REMARK   34  A    between atoms: _88  and  _90
REMARK   35  A    between atoms: _90  and  _91
REMARK   36  A    between atoms: _90  and  _93
REMARK   37  A    between atoms: _96  and  _98
REMARK   38  A    between atoms: _98  and  _99
REMARK   39  A    between atoms: _98  and  _101
REMARK   40  A    between atoms: _101  and  _102
REMARK   41  A    between atoms: _107  and  _108
REMARK   42  A    between atoms: _110  and  _112
REMARK   43  A    between atoms: _112  and  _113
REMARK   44  A    between atoms: _112  and  _115
REMARK   45  A    between atoms: _115  and  _116
REMARK   46  A    between atoms: _121  and  _123
REMARK   47  A    between atoms: _123  and  _124
REMARK   48  A    between atoms: _123  and  _126
REMARK   49  A    between atoms: _126  and  _127
REMARK   50  A    between atoms: _132  and  _134
REMARK   51  A    between atoms: _134  and  _135
REMARK   52  A    between atoms: _134  and  _137
REMARK   53  A    between atoms: _139  and  _141
REMARK   54  A    between atoms: _141  and  _142
REMARK   55  A    between atoms: _145  and  _147
REMARK   56  A    between atoms: _147  and  _148
REMARK   57  A    between atoms: _147  and  _150
REMARK   58  A    between atoms: _153  and  _155
REMARK   59  A    between atoms: _155  and  _156
REMARK   60  A    between atoms: _155  and  _158
REMARK   61  A    between atoms: _158  and  _159
REMARK   62  A    between atoms: _159  and  _160
REMARK   63  A    between atoms: _160  and  _161
REMARK   64  A    between atoms: _161  and  _162
REMARK   65  A    between atoms: _166  and  _168
REMARK   66  A    between atoms: _168  and  _169
REMARK   67  A    between atoms: _168  and  _171
REMARK   68  A    between atoms: _171  and  _172
REMARK   69  A    between atoms: _174  and  _176
REMARK   70  A    between atoms: _176  and  _177
REMARK   71  A    between atoms: _176  and  _179
REMARK   72  A    between atoms: _179  and  _180
REMARK   73  A    between atoms: _183  and  _185
REMARK   74  A    between atoms: _185  and  _186
REMARK   75  A    between atoms: _185  and  _188
REMARK   76  A    between atoms: _188  and  _189
REMARK   77  A    between atoms: _192  and  _194
REMARK   78  A    between atoms: _194  and  _195
REMARK   79  A    between atoms: _194  and  _197
REMARK   80  A    between atoms: _197  and  _198
REMARK   81  A    between atoms: _198  and  _199
REMARK   82  A    between atoms: _202  and  _204
REMARK   83  A    between atoms: _204  and  _205
REMARK   84  A    between atoms: _204  and  _207
REMARK   85  A    between atoms: _210  and  _212
REMARK   86  A    between atoms: _212  and  _213
REMARK   87  A    between atoms: _212  and  _215
REMARK   88  A    between atoms: _215  and  _216
REMARK   89  A    between atoms: _216  and  _217
REMARK   90  A    between atoms: _222  and  _224
REMARK   91  A    between atoms: _224  and  _225
REMARK   92  A    between atoms: _224  and  _227
REMARK   93  A    between atoms: _227  and  _228
REMARK   94  A    between atoms: _234  and  _236
REMARK   95  A    between atoms: _236  and  _237
REMARK   96  A    between atoms: _236  and  _239
REMARK   97  A    between atoms: _239  and  _240
REMARK   98  A    between atoms: _243  and  _245
REMARK   99  A    between atoms: _245  and  _246
REMARK  100  A    between atoms: _245  and  _248
REMARK  101  A    between atoms: _248  and  _249
REMARK  102  A    between atoms: _252  and  _254
REMARK  103  A    between atoms: _254  and  _255
REMARK  104  A    between atoms: _254  and  _257
REMARK  105  A    between atoms: _257  and  _258
REMARK  106  A    between atoms: _258  and  _259
REMARK  107  A    between atoms: _262  and  _264
REMARK  108  A    between atoms: _264  and  _265
REMARK  109  A    between atoms: _267  and  _269
REMARK  110  A    between atoms: _269  and  _270
REMARK  111  A    between atoms: _269  and  _272
REMARK  112  A    between atoms: _272  and  _273
REMARK  113  A    between atoms: _276  and  _278
REMARK  114  A    between atoms: _278  and  _279
REMARK  115  A    between atoms: _278  and  _281
REMARK  116  A    between atoms: _281  and  _282
REMARK  117  A    between atoms: _285  and  _287
REMARK  118  A    between atoms: _287  and  _288
REMARK  119  A    between atoms: _287  and  _290
REMARK  120  A    between atoms: _290  and  _291
REMARK  121  A    between atoms: _291  and  _292
REMARK  122  A    between atoms: _294  and  _296
REMARK  123  A    between atoms: _296  and  _297
REMARK  124  A    between atoms: _296  and  _299
REMARK  125  A    between atoms: _299  and  _300
REMARK  126  A    between atoms: _300  and  _301
REMARK  127  A    between atoms: _301  and  _302
REMARK  128  A    between atoms: _302  and  _303
REMARK  129  A    between atoms: _307  and  _309
REMARK  130  A    between atoms: _309  and  _310
REMARK  131  A    between atoms: _309  and  _312
REMARK  132  A    between atoms: _312  and  _313
REMARK  133  A    between atoms: _319  and  _321
REMARK  134  A    between atoms: _321  and  _322
REMARK  135  A    between atoms: _321  and  _324
REMARK  136  A    between atoms: _327  and  _329
REMARK  137  A    between atoms: _329  and  _330
REMARK  138  A    between atoms: _329  and  _332
REMARK  139  A    between atoms: _332  and  _333
REMARK  140  A    between atoms: _336  and  _338
REMARK  141  A    between atoms: _338  and  _339
REMARK  142  A    between atoms: _338  and  _341
REMARK  143  A    between atoms: _341  and  _342
REMARK  144  A    between atoms: _344  and  _346
REMARK  145  A    between atoms: _346  and  _347
REMARK  146  A    between atoms: _346  and  _349
REMARK  147  A    between atoms: _349  and  _350
REMARK  148  A    between atoms: _353  and  _355
REMARK  149  A    between atoms: _355  and  _356
REMARK  150  A    between atoms: _358  and  _360
REMARK  151  A    between atoms: _360  and  _361
REMARK  152  A    between atoms: _360  and  _363
REMARK  153  A    between atoms: _363  and  _364
REMARK  154  A    between atoms: _367  and  _369
REMARK  155  A    between atoms: _369  and  _370
REMARK  156  A    between atoms: _369  and  _372
REMARK  157  A    between atoms: _375  and  _376
REMARK  158  A    between atoms: _381  and  _383
REMARK  159  A    between atoms: _383  and  _384
REMARK  160  A    between atoms: _383  and  _386
REMARK  161  A    between atoms: _386  and  _387
REMARK  162  A    between atoms: _390  and  _392
REMARK  163  A    between atoms: _392  and  _393
REMARK  164  A    between atoms: _392  and  _395
REMARK  165  A    between atoms: _398  and  _400
REMARK  166  A    between atoms: _400  and  _401
REMARK  167  A    between atoms: _400  and  _403
REMARK  168  A    between atoms: _406  and  _408
REMARK  169  A    between atoms: _408  and  _409
REMARK  170  A    between atoms: _408  and  _411
REMARK  171  A    between atoms: _411  and  _412
REMARK  172  A    between atoms: _416  and  _417
REMARK  173  A    between atoms: _422  and  _424
REMARK  174  A    between atoms: _424  and  _425
REMARK  175  A    between atoms: _424  and  _427
REMARK  176  A    between atoms: _427  and  _428
REMARK  177  A    between atoms: _433  and  _434
REMARK  178  A    between atoms: _436  and  _438
REMARK  179  A    between atoms: _438  and  _439
REMARK  180  A    between atoms: _438  and  _441
REMARK  181  A    between atoms: _441  and  _442
REMARK  182  A    between atoms: _442  and  _443
REMARK  183  A    between atoms: _445  and  _447
REMARK  184  A    between atoms: _447  and  _448
REMARK  185  A    between atoms: _447  and  _450
REMARK  186  A    between atoms: _450  and  _451
REMARK  187  A    between atoms: _451  and  _452
REMARK  188  A    between atoms: _452  and  _453
REMARK  189  A    between atoms: _453  and  _454
REMARK  190  A    between atoms: _458  and  _460
REMARK  191  A    between atoms: _460  and  _461
REMARK  192  A    between atoms: _460  and  _463
REMARK  193  A    between atoms: _463  and  _464
REMARK  194  A    between atoms: _469  and  _471
REMARK  195  A    between atoms: _471  and  _472
REMARK  196  A    between atoms: _474  and  _476
REMARK  197  A    between atoms: _476  and  _477
REMARK  198  A    between atoms: _476  and  _479
REMARK  199  A    between atoms: _479  and  _480
REMARK  200  A    between atoms: _483  and  _485
REMARK  201  A    between atoms: _485  and  _486
REMARK  202  A    between atoms: _485  and  _488
REMARK  203  A    between atoms: _488  and  _489
REMARK  204  A    between atoms: _494  and  _496
REMARK  205  A    between atoms: _496  and  _497
REMARK  206  A    between atoms: _496  and  _499
REMARK  207  A    between atoms: _499  and  _500
REMARK  208  A    between atoms: _503  and  _505
REMARK  209  A    between atoms: _505  and  _506
REMARK  210  A    between atoms: _505  and  _508
REMARK  211  A    between atoms: _508  and  _509
REMARK  212  A    between atoms: _515  and  _517
REMARK  213  A    between atoms: _517  and  _518
REMARK  214  A    between atoms: _517  and  _520
REMARK  215  A    between atoms: _520  and  _521
REMARK  216  A    between atoms: _526  and  _528
REMARK  217  A    between atoms: _528  and  _529
REMARK  218  A    between atoms: _528  and  _531
REMARK  219  A    between atoms: _531  and  _532
REMARK  220  A    between atoms: _532  and  _533
REMARK  221  A    between atoms: _533  and  _534
REMARK  222  A    between atoms: _543  and  _545
REMARK  223  A    between atoms: _545  and  _546
REMARK  224  A    between atoms: _545  and  _548
REMARK  225  A    between atoms: _548  and  _549
REMARK  226  A    between atoms: _554  and  _556
REMARK  227  A    between atoms: _556  and  _557
REMARK  228  A    between atoms: _556  and  _559
REMARK  229  A    between atoms: _561  and  _563
REMARK  230  A    between atoms: _563  and  _564
REMARK  231  A    between atoms: _563  and  _566
REMARK  232  A    between atoms: _566  and  _567
REMARK  233  A    between atoms: _567  and  _568
REMARK  234  A    between atoms: _570  and  _572
REMARK  235  A    between atoms: _572  and  _573
REMARK  236  A    between atoms: _572  and  _575
REMARK  237  A    between atoms: _575  and  _576
REMARK  238  A    between atoms: _579  and  _581
REMARK  239  A    between atoms: _581  and  _582
REMARK  240  A    between atoms: _581  and  _584
REMARK  241  A    between atoms: _584  and  _585
REMARK  242  A    between atoms: _585  and  _586
REMARK  243  A    between atoms: _586  and  _587
REMARK  244  A    between atoms: _587  and  _588
REMARK  245  A    between atoms: _592  and  _594
REMARK  246  A    between atoms: _594  and  _595
REMARK  247  A    between atoms: _594  and  _597
REMARK  248  A    between atoms: _600  and  _602
REMARK  249  A    between atoms: _602  and  _603
REMARK  250  A    between atoms: _606  and  _608
REMARK  251  A    between atoms: _608  and  _609
REMARK  252  A    between atoms: _608  and  _611
REMARK  253  A    between atoms: _611  and  _612
REMARK  254  A    between atoms: _615  and  _617
REMARK  255  A    between atoms: _617  and  _618
REMARK  256  A    between atoms: _617  and  _620
REMARK  257  A    between atoms: _620  and  _621
REMARK  258  A    between atoms: _627  and  _629
REMARK  259  A    between atoms: _629  and  _630
REMARK                            x       y       z     vdW  Elec       q    Type
REMARK                         _______ _______ _______ _____ _____    ______ ____
ROOT
ATOM      1  CA  ILE A   1      22.008  11.464  -3.458  0.00  0.00    +0.133 C 
ENDROOT
BRANCH   1   2
ATOM      2  N   ILE A   1      20.986  11.724  -4.476  0.00  0.00    -0.239 NA
ATOM      3  H   ILE A   1      21.276  11.799  -5.472  0.00  0.00    +0.142 HD
ENDBRANCH   1   2
BRANCH   1   4
ATOM      4  C   ILE A   1      22.322  12.738  -2.674  0.00  0.00    +0.224 C 
ATOM      5  O   ILE A   1      22.777  13.738  -3.243  0.00  0.00    -0.287 OA
ENDBRANCH   1   4
BRANCH   1   6
ATOM      6  CB  ILE A   1      23.313  10.879  -4.061  0.00  0.00    +0.023 C 
ATOM      7  CG2 ILE A   1      24.427  10.871  -3.018  0.00  0.00    +0.002 C 
BRANCH   6   8
ATOM      8  CG1 ILE A   1      23.073   9.462  -4.591  0.00  0.00    +0.002 C 
ATOM      9  CD1 ILE A   1      24.285   8.824  -5.256  0.00  0.00    +0.000 C 
ENDBRANCH   6   8
ENDBRANCH   1   6
TORSDOF 4
REMARK  Name = ../refined-set-2016/3u6h/3u6h_pocket.pdb
REMARK  259 active torsions:
REMARK  status: ('A' for Active; 'I' for Inactive)
REMARK    1  A    between atoms: _1  and  _3
REMARK    2  A    between atoms: _3  and  _4
REMARK    3  A    between atoms: _3  and  _6
REMARK    4  A    between atoms: _9  and  _11
REMARK    5  A    between atoms: _11  and  _12
REMARK    6  A    between atoms: _11  and  _14
REMARK    7  A    between atoms: _17  and  _19
REMARK    8  A    between atoms: _19  and  _20
REMARK    9  A    between atoms: _19  and  _22
REMARK   10  A    between atoms: _22  and  _23
REMARK   11  A    between atoms: _26  and  _28
REMARK   12  A    between atoms: _28  and  _29
REMARK   13  A    between atoms: _31  and  _33
REMARK   14  A    between atoms: _33  and  _34
REMARK   15  A    between atoms: _33  and  _36
REMARK   16  A    between atoms: _36  and  _37
REMARK   17  A    between atoms: _37  and  _38
REMARK   18  A    between atoms: _38  and  _39
REMARK   19  A    between atoms: _48  and  _50
REMARK   20  A    between atoms: _50  and  _51
REMARK   21  A    between atoms: _53  and  _55
REMARK   22  A    between atoms: _55  and  _56
REMARK   23  A    between atoms: _55  and  _58
REMARK   24  A    between atoms: _58  and  _59
REMARK   25  A    between atoms: _64  and  _66
REMARK   26  A    between atoms: _66  and  _67
REMARK   27  A    between atoms: _66  and  _69
REMARK   28  A    between atoms: _69  and  _70
REMARK   29  A    between atoms: _76  and  _78
REMARK   30  A    between atoms: _78  and  _79
REMARK   31  A    between atoms: _81  and  _83
REMARK   32  A    between atoms: _83  and  _84
REMARK   33  A    between atoms: _83  and  _86
REMARK   34  A    between atoms: _88  and  _90
REMARK   35  A    between atoms: _90  and  _91
REMARK   36  A    between atoms: _90  and  _93
REMARK   37  A    between atoms: _96  and  _98
REMARK   38  A    between atoms: _98  and  _99
REMARK   39  A    between atoms: _98  and  _101
REMARK   40  A    between atoms: _101  and  _102
REMARK   41  A    between atoms: _107  and  _108
REMARK   42  A    between atoms: _110  and  _112
REMARK   43  A    between atoms: _112  and  _113
REMARK   44  A    between atoms: _112  and  _115
REMARK   45  A    between atoms: _115  and  _116
REMARK   46  A    between atoms: _121  and  _123
REMARK   47  A    between atoms: _123  and  _124
REMARK   48  A    between atoms: _123  and  _126
REMARK   49  A    between atoms: _126  and  _127
REMARK   50  A    between atoms: _132  and  _134
REMARK   51  A    between atoms: _134  and  _135
REMARK   52  A    between atoms: _134  and  _137
REMARK   53  A    between atoms: _139  and  _141
REMARK   54  A    between atoms: _141  and  _142
REMARK   55  A    between atoms: _145  and  _147
REMARK   56  A    between atoms: _147  and  _148
REMARK   57  A    between atoms: _147  and  _150
REMARK   58  A    between atoms: _153  and  _155
REMARK   59  A    between atoms: _155  and  _156
REMARK   60  A    between atoms: _155  and  _158
REMARK   61  A    between atoms: _158  and  _159
REMARK   62  A    between atoms: _159  and  _160
REMARK   63  A    between atoms: _160  and  _161
REMARK   64  A    between atoms: _161  and  _162
REMARK   65  A    between atoms: _166  and  _168
REMARK   66  A    between atoms: _168  and  _169
REMARK   67  A    between atoms: _168  and  _171
REMARK   68  A    between atoms: _171  and  _172
REMARK   69  A    between atoms: _174  and  _176
REMARK   70  A    between atoms: _176  and  _177
REMARK   71  A    between atoms: _176  and  _179
REMARK   72  A    between atoms: _179  and  _180
REMARK   73  A    between atoms: _183  and  _185
REMARK   74  A    between atoms: _185  and  _186
REMARK   75  A    between atoms: _185  and  _188
REMARK   76  A    between atoms: _188  and  _189
REMARK   77  A    between atoms: _192  and  _194
REMARK   78  A    between atoms: _194  and  _195
REMARK   79  A    between atoms: _194  and  _197
REMARK   80  A    between atoms: _197  and  _198
REMARK   81  A    between atoms: _198  and  _199
REMARK   82  A    between atoms: _202  and  _204
REMARK   83  A    between atoms: _204  and  _205
REMARK   84  A    between atoms: _204  and  _207
REMARK   85  A    between atoms: _210  and  _212
REMARK   86  A    between atoms: _212  and  _213
REMARK   87  A    between atoms: _212  and  _215
REMARK   88  A    between atoms: _215  and  _216
REMARK   89  A    between atoms: _216  and  _217
REMARK   90  A    between atoms: _222  and  _224
REMARK   91  A    between atoms: _224  and  _225
REMARK   92  A    between atoms: _224  and  _227
REMARK   93  A    between atoms: _227  and  _228
REMARK   94  A    between atoms: _234  and  _236
REMARK   95  A    between atoms: _236  and  _237
REMARK   96  A    between atoms: _236  and  _239
REMARK   97  A    between atoms: _239  and  _240
REMARK   98  A    between atoms: _243  and  _245
REMARK   99  A    between atoms: _245  and  _246
REMARK  100  A    between atoms: _245  and  _248
REMARK  101  A    between atoms: _248  and  _249
REMARK  102  A    between atoms: _252  and  _254
REMARK  103  A    between atoms: _254  and  _255
REMARK  104  A    between atoms: _254  and  _257
REMARK  105  A    between atoms: _257  and  _258
REMARK  106  A    between atoms: _258  and  _259
REMARK  107  A    between atoms: _262  and  _264
REMARK  108  A    between atoms: _264  and  _265
REMARK  109  A    between atoms: _267  and  _269
REMARK  110  A    between atoms: _269  and  _270
REMARK  111  A    between atoms: _269  and  _272
REMARK  112  A    between atoms: _272  and  _273
REMARK  113  A    between atoms: _276  and  _278
REMARK  114  A    between atoms: _278  and  _279
REMARK  115  A    between atoms: _278  and  _281
REMARK  116  A    between atoms: _281  and  _282
REMARK  117  A    between atoms: _285  and  _287
REMARK  118  A    between atoms: _287  and  _288
REMARK  119  A    between atoms: _287  and  _290
REMARK  120  A    between atoms: _290  and  _291
REMARK  121  A    between atoms: _291  and  _292
REMARK  122  A    between atoms: _294  and  _296
REMARK  123  A    between atoms: _296  and  _297
REMARK  124  A    between atoms: _296  and  _299
REMARK  125  A    between atoms: _299  and  _300
REMARK  126  A    between atoms: _300  and  _301
REMARK  127  A    between atoms: _301  and  _302
REMARK  128  A    between atoms: _302  and  _303
REMARK  129  A    between atoms: _307  and  _309
REMARK  130  A    between atoms: _309  and  _310
REMARK  131  A    between atoms: _309  and  _312
REMARK  132  A    between atoms: _312  and  _313
REMARK  133  A    between atoms: _319  and  _321
REMARK  134  A    between atoms: _321  and  _322
REMARK  135  A    between atoms: _321  and  _324
REMARK  136  A    between atoms: _327  and  _329
REMARK  137  A    between atoms: _329  and  _330
REMARK  138  A    between atoms: _329  and  _332
REMARK  139  A    between atoms: _332  and  _333
REMARK  140  A    between atoms: _336  and  _338
REMARK  141  A    between atoms: _338  and  _339
REMARK  142  A    between atoms: _338  and  _341
REMARK  143  A    between atoms: _341  and  _342
REMARK  144  A    between atoms: _344  and  _346
REMARK  145  A    between atoms: _346  and  _347
REMARK  146  A    between atoms: _346  and  _349
REMARK  147  A    between atoms: _349  and  _350
REMARK  148  A    between atoms: _353  and  _355
REMARK  149  A    between atoms: _355  and  _356
REMARK  150  A    between atoms: _358  and  _360
REMARK  151  A    between atoms: _360  and  _361
REMARK  152  A    between atoms: _360  and  _363
REMARK  153  A    between atoms: _363  and  _364
REMARK  154  A    between atoms: _367  and  _369
REMARK  155  A    between atoms: _369  and  _370
REMARK  156  A    between atoms: _369  and  _372
REMARK  157  A    between atoms: _375  and  _376
REMARK  158  A    between atoms: _381  and  _383
REMARK  159  A    between atoms: _383  and  _384
REMARK  160  A    between atoms: _383  and  _386
REMARK  161  A    between atoms: _386  and  _387
REMARK  162  A    between atoms: _390  and  _392
REMARK  163  A    between atoms: _392  and  _393
REMARK  164  A    between atoms: _392  and  _395
REMARK  165  A    between atoms: _398  and  _400
REMARK  166  A    between atoms: _400  and  _401
REMARK  167  A    between atoms: _400  and  _403
REMARK  168  A    between atoms: _406  and  _408
REMARK  169  A    between atoms: _408  and  _409
REMARK  170  A    between atoms: _408  and  _411
REMARK  171  A    between atoms: _411  and  _412
REMARK  172  A    between atoms: _416  and  _417
REMARK  173  A    between atoms: _422  and  _424
REMARK  174  A    between atoms: _424  and  _425
REMARK  175  A    between atoms: _424  and  _427
REMARK  176  A    between atoms: _427  and  _428
REMARK  177  A    between atoms: _433  and  _434
REMARK  178  A    between atoms: _436  and  _438
REMARK  179  A    between atoms: _438  and  _439
REMARK  180  A    between atoms: _438  and  _441
REMARK  181  A    between atoms: _441  and  _442
REMARK  182  A    between atoms: _442  and  _443
REMARK  183  A    between atoms: _445  and  _447
REMARK  184  A    between atoms: _447  and  _448
REMARK  185  A    between atoms: _447  and  _450
REMARK  186  A    between atoms: _450  and  _451
REMARK  187  A    between atoms: _451  and  _452
REMARK  188  A    between atoms: _452  and  _453
REMARK  189  A    between atoms: _453  and  _454
REMARK  190  A    between atoms: _458  and  _460
REMARK  191  A    between atoms: _460  and  _461
REMARK  192  A    between atoms: _460  and  _463
REMARK  193  A    between atoms: _463  and  _464
REMARK  194  A    between atoms: _469  and  _471
REMARK  195  A    between atoms: _471  and  _472
REMARK  196  A    between atoms: _474  and  _476
REMARK  197  A    between atoms: _476  and  _477
REMARK  198  A    between atoms: _476  and  _479
REMARK  199  A    between atoms: _479  and  _480
REMARK  200  A    between atoms: _483  and  _485
REMARK  201  A    between atoms: _485  and  _486
REMARK  202  A    between atoms: _485  and  _488
REMARK  203  A    between atoms: _488  and  _489
REMARK  204  A    between atoms: _494  and  _496
REMARK  205  A    between atoms: _496  and  _497
REMARK  206  A    between atoms: _496  and  _499
REMARK  207  A    between atoms: _499  and  _500
REMARK  208  A    between atoms: _503  and  _505
REMARK  209  A    between atoms: _505  and  _506
REMARK  210  A    between atoms: _505  and  _508
REMARK  211  A    between atoms: _508  and  _509
REMARK  212  A    between atoms: _515  and  _517
REMARK  213  A    between atoms: _517  and  _518
REMARK  214  A    between atoms: _517  and  _520
REMARK  215  A    between atoms: _520  and  _521
REMARK  216  A    between atoms: _526  and  _528
REMARK  217  A    between atoms: _528  and  _529
REMARK  218  A    between atoms: _528  and  _531
REMARK  219  A    between atoms: _531  and  _532
REMARK  220  A    between atoms: _532  and  _533
REMARK  221  A    between atoms: _533  and  _534
REMARK  222  A    between atoms: _543  and  _545
REMARK  223  A    between atoms: _545  and  _546
REMARK  224  A    between atoms: _545  and  _548
REMARK  225  A    between atoms: _548  and  _549
REMARK  226  A    between atoms: _554  and  _556
REMARK  227  A    between atoms: _556  and  _557
REMARK  228  A    between atoms: _556  and  _559
REMARK  229  A    between atoms: _561  and  _563
REMARK  230  A    between atoms: _563  and  _564
REMARK  231  A    between atoms: _563  and  _566
REMARK  232  A    between atoms: _566  and  _567
REMARK  233  A    between atoms: _567  and  _568
REMARK  234  A    between atoms: _570  and  _572
REMARK  235  A    between atoms: _572  and  _573
REMARK  236  A    between atoms: _572  and  _575
REMARK  237  A    between atoms: _575  and  _576
REMARK  238  A    between atoms: _579  and  _581
REMARK  239  A    between atoms: _581  and  _582
REMARK  240  A    between atoms: _581  and  _584
REMARK  241  A    between atoms: _584  and  _585
REMARK  242  A    between atoms: _585  and  _586
REMARK  243  A    between atoms: _586  and  _587
REMARK  244  A    between atoms: _587  and  _588
REMARK  245  A    between atoms: _592  and  _594
REMARK  246  A    between atoms: _594  and  _595
REMARK  247  A    between atoms: _594  and  _597
REMARK  248  A    between atoms: _600  and  _602
REMARK  249  A    between atoms: _602  and  _603
REMARK  250  A    between atoms: _606  and  _608
REMARK  251  A    between atoms: _608  and  _609
REMARK  252  A    between atoms: _608  and  _611
REMARK  253  A    between atoms: _611  and  _612
REMARK  254  A    between atoms: _615  and  _617
REMARK  255  A    between atoms: _617  and  _618
REMARK  256  A    between atoms: _617  and  _620
REMARK  257  A    between atoms: _620  and  _621
REMARK  258  A    between atoms: _627  and  _629
REMARK  259  A    between atoms: _629  and  _630
REMARK                            x       y       z     vdW  Elec       q    Type
REMARK                         _______ _______ _______ _____ _____    ______ ____
ROOT
ATOM      1  C   GLU A   1      25.399   7.446  -0.879  0.00  0.00    +0.238 C 
ATOM      2  N   VAL A   2      26.309   8.394  -0.644  0.00  0.00    -0.298 N 
ATOM      3  H   VAL A   2      26.139   9.075   0.123  0.00  0.00    +0.150 HD
ATOM      4  O   GLU A   1      25.488   6.647  -1.811  0.00  0.00    -0.274 OA
ENDROOT
BRANCH   1   5
ATOM      5  CA  GLU A   1      24.206   7.371   0.079  0.00  0.00    +0.145 C 
BRANCH   5   6
ATOM      6  N   GLU A   1      24.590   7.560   1.476  0.00  0.00    -0.238 NA
ATOM      7  H   GLU A   1      24.213   8.384   1.986  0.00  0.00    +0.142 HD
ENDBRANCH   5   6
BRANCH   5   8
ATOM      8  CB  GLU A   1      23.113   8.367  -0.317  0.00  0.00    +0.038 C 
BRANCH   8   9
ATOM      9  CG  GLU A   1      21.775   8.110   0.378  0.00  0.00    +0.116 C 
BRANCH   9  10
ATOM     10  CD  GLU A   1      20.740   9.200   0.139  0.00  0.00    +0.365 C 
ATOM     11  OE2 GLU A   1      19.535   8.888   0.213  0.00  0.00    -0.246 OA
ATOM     12  OE1 GLU A   1      21.112  10.369  -0.105  0.00  0.00    -0.246 OA
ENDBRANCH   9  10
ENDBRANCH   8   9
ENDBRANCH   5   8
ENDBRANCH   1   5
BRANCH   2  13
ATOM     13  CA  VAL A   2      27.546   8.506  -1.436  0.00  0.00    +0.137 C 
BRANCH  13  14
ATOM     14  CB  VAL A   2      28.362   9.799  -1.115  0.00  0.00    +0.026 C 
ATOM     15  CG2 VAL A   2      27.555  11.047  -1.432  0.00  0.00    +0.002 C 
ATOM     16  CG1 VAL A   2      29.664   9.836  -1.903  0.00  0.00    +0.002 C 
ENDBRANCH  13  14
BRANCH  13  17
ATOM     17  C   VAL A   2      28.415   7.262  -1.253  0.00  0.00    +0.227 C 
ATOM     18  O   VAL A   2      28.975   6.748  -2.221  0.00  0.00    -0.286 OA
ENDBRANCH  13  17
ENDBRANCH   2  13
TORSDOF 8
REMARK  Name = ../refined-set-2016/3u6h/3u6h_pocket.pdb
REMARK  259 active torsions:
REMARK  status: ('A' for Active; 'I' for Inactive)
REMARK    1  A    between atoms: _1  and  _3
REMARK    2  A    between atoms: _3  and  _4
REMARK    3  A    between atoms: _3  and  _6
REMARK    4  A    between atoms: _9  and  _11
REMARK    5  A    between atoms: _11  and  _12
REMARK    6  A    between atoms: _11  and  _14
REMARK    7  A    between atoms: _17  and  _19
REMARK    8  A    between atoms: _19  and  _20
REMARK    9  A    between atoms: _19  and  _22
REMARK   10  A    between atoms: _22  and  _23
REMARK   11  A    between atoms: _26  and  _28
REMARK   12  A    between atoms: _28  and  _29
REMARK   13  A    between atoms: _31  and  _33
REMARK   14  A    between atoms: _33  and  _34
REMARK   15  A    between atoms: _33  and  _36
REMARK   16  A    between atoms: _36  and  _37
REMARK   17  A    between atoms: _37  and  _38
REMARK   18  A    between atoms: _38  and  _39
REMARK   19  A    between atoms: _48  and  _50
REMARK   20  A    between atoms: _50  and  _51
REMARK   21  A    between atoms: _53  and  _55
REMARK   22  A    between atoms: _55  and  _56
REMARK   23  A    between atoms: _55  and  _58
REMARK   24  A    between atoms: _58  and  _59
REMARK   25  A    between atoms: _64  and  _66
REMARK   26  A    between atoms: _66  and  _67
REMARK   27  A    between atoms: _66  and  _69
REMARK   28  A    between atoms: _69  and  _70
REMARK   29  A    between atoms: _76  and  _78
REMARK   30  A    between atoms: _78  and  _79
REMARK   31  A    between atoms: _81  and  _83
REMARK   32  A    between atoms: _83  and  _84
REMARK   33  A    between atoms: _83  and  _86
REMARK   34  A    between atoms: _88  and  _90
REMARK   35  A    between atoms: _90  and  _91
REMARK   36  A    between atoms: _90  and  _93
REMARK   37  A    between atoms: _96  and  _98
REMARK   38  A    between atoms: _98  and  _99
REMARK   39  A    between atoms: _98  and  _101
REMARK   40  A    between atoms: _101  and  _102
REMARK   41  A    between atoms: _107  and  _108
REMARK   42  A    between atoms: _110  and  _112
REMARK   43  A    between atoms: _112  and  _113
REMARK   44  A    between atoms: _112  and  _115
REMARK   45  A    between atoms: _115  and  _116
REMARK   46  A    between atoms: _121  and  _123
REMARK   47  A    between atoms: _123  and  _124
REMARK   48  A    between atoms: _123  and  _126
REMARK   49  A    between atoms: _126  and  _127
REMARK   50  A    between atoms: _132  and  _134
REMARK   51  A    between atoms: _134  and  _135
REMARK   52  A    between atoms: _134  and  _137
REMARK   53  A    between atoms: _139  and  _141
REMARK   54  A    between atoms: _141  and  _142
REMARK   55  A    between atoms: _145  and  _147
REMARK   56  A    between atoms: _147  and  _148
REMARK   57  A    between atoms: _147  and  _150
REMARK   58  A    between atoms: _153  and  _155
REMARK   59  A    between atoms: _155  and  _156
REMARK   60  A    between atoms: _155  and  _158
REMARK   61  A    between atoms: _158  and  _159
REMARK   62  A    between atoms: _159  and  _160
REMARK   63  A    between atoms: _160  and  _161
REMARK   64  A    between atoms: _161  and  _162
REMARK   65  A    between atoms: _166  and  _168
REMARK   66  A    between atoms: _168  and  _169
REMARK   67  A    between atoms: _168  and  _171
REMARK   68  A    between atoms: _171  and  _172
REMARK   69  A    between atoms: _174  and  _176
REMARK   70  A    between atoms: _176  and  _177
REMARK   71  A    between atoms: _176  and  _179
REMARK   72  A    between atoms: _179  and  _180
REMARK   73  A    between atoms: _183  and  _185
REMARK   74  A    between atoms: _185  and  _186
REMARK   75  A    between atoms: _185  and  _188
REMARK   76  A    between atoms: _188  and  _189
REMARK   77  A    between atoms: _192  and  _194
REMARK   78  A    between atoms: _194  and  _195
REMARK   79  A    between atoms: _194  and  _197
REMARK   80  A    between atoms: _197  and  _198
REMARK   81  A    between atoms: _198  and  _199
REMARK   82  A    between atoms: _202  and  _204
REMARK   83  A    between atoms: _204  and  _205
REMARK   84  A    between atoms: _204  and  _207
REMARK   85  A    between atoms: _210  and  _212
REMARK   86  A    between atoms: _212  and  _213
REMARK   87  A    between atoms: _212  and  _215
REMARK   88  A    between atoms: _215  and  _216
REMARK   89  A    between atoms: _216  and  _217
REMARK   90  A    between atoms: _222  and  _224
REMARK   91  A    between atoms: _224  and  _225
REMARK   92  A    between atoms: _224  and  _227
REMARK   93  A    between atoms: _227  and  _228
REMARK   94  A    between atoms: _234  and  _236
REMARK   95  A    between atoms: _236  and  _237
REMARK   96  A    between atoms: _236  and  _239
REMARK   97  A    between atoms: _239  and  _240
REMARK   98  A    between atoms: _243  and  _245
REMARK   99  A    between atoms: _245  and  _246
REMARK  100  A    between atoms: _245  and  _248
REMARK  101  A    between atoms: _248  and  _249
REMARK  102  A    between atoms: _252  and  _254
REMARK  103  A    between atoms: _254  and  _255
REMARK  104  A    between atoms: _254  and  _257
REMARK  105  A    between atoms: _257  and  _258
REMARK  106  A    between atoms: _258  and  _259
REMARK  107  A    between atoms: _262  and  _264
REMARK  108  A    between atoms: _264  and  _265
REMARK  109  A    between atoms: _267  and  _269
REMARK  110  A    between atoms: _269  and  _270
REMARK  111  A    between atoms: _269  and  _272
REMARK  112  A    between atoms: _272  and  _273
REMARK  113  A    between atoms: _276  and  _278
REMARK  114  A    between atoms: _278  and  _279
REMARK  115  A    between atoms: _278  and  _281
REMARK  116  A    between atoms: _281  and  _282
REMARK  117  A    between atoms: _285  and  _287
REMARK  118  A    between atoms: _287  and  _288
REMARK  119  A    between atoms: _287  and  _290
REMARK  120  A    between atoms: _290  and  _291
REMARK  121  A    between atoms: _291  and  _292
REMARK  122  A    between atoms: _294  and  _296
REMARK  123  A    between atoms: _296  and  _297
REMARK  124  A    between atoms: _296  and  _299
REMARK  125  A    between atoms: _299  and  _300
REMARK  126  A    between atoms: _300  and  _301
REMARK  127  A    between atoms: _301  and  _302
REMARK  128  A    between atoms: _302  and  _303
REMARK  129  A    between atoms: _307  and  _309
REMARK  130  A    between atoms: _309  and  _310
REMARK  131  A    between atoms: _309  and  _312
REMARK  132  A    between atoms: _312  and  _313
REMARK  133  A    between atoms: _319  and  _321
REMARK  134  A    between atoms: _321  and  _322
REMARK  135  A    between atoms: _321  and  _324
REMARK  136  A    between atoms: _327  and  _329
REMARK  137  A    between atoms: _329  and  _330
REMARK  138  A    between atoms: _329  and  _332
REMARK  139  A    between atoms: _332  and  _333
REMARK  140  A    between atoms: _336  and  _338
REMARK  141  A    between atoms: _338  and  _339
REMARK  142  A    between atoms: _338  and  _341
REMARK  143  A    between atoms: _341  and  _342
REMARK  144  A    between atoms: _344  and  _346
REMARK  145  A    between atoms: _346  and  _347
REMARK  146  A    between atoms: _346  and  _349
REMARK  147  A    between atoms: _349  and  _350
REMARK  148  A    between atoms: _353  and  _355
REMARK  149  A    between atoms: _355  and  _356
REMARK  150  A    between atoms: _358  and  _360
REMARK  151  A    between atoms: _360  and  _361
REMARK  152  A    between atoms: _360  and  _363
REMARK  153  A    between atoms: _363  and  _364
REMARK  154  A    between atoms: _367  and  _369
REMARK  155  A    between atoms: _369  and  _370
REMARK  156  A    between atoms: _369  and  _372
REMARK  157  A    between atoms: _375  and  _376
REMARK  158  A    between atoms: _381  and  _383
REMARK  159  A    between atoms: _383  and  _384
REMARK  160  A    between atoms: _383  and  _386
REMARK  161  A    between atoms: _386  and  _387
REMARK  162  A    between atoms: _390  and  _392
REMARK  163  A    between atoms: _392  and  _393
REMARK  164  A    between atoms: _392  and  _395
REMARK  165  A    between atoms: _398  and  _400
REMARK  166  A    between atoms: _400  and  _401
REMARK  167  A    between atoms: _400  and  _403
REMARK  168  A    between atoms: _406  and  _408
REMARK  169  A    between atoms: _408  and  _409
REMARK  170  A    between atoms: _408  and  _411
REMARK  171  A    between atoms: _411  and  _412
REMARK  172  A    between atoms: _416  and  _417
REMARK  173  A    between atoms: _422  and  _424
REMARK  174  A    between atoms: _424  and  _425
REMARK  175  A    between atoms: _424  and  _427
REMARK  176  A    between atoms: _427  and  _428
REMARK  177  A    between atoms: _433  and  _434
REMARK  178  A    between atoms: _436  and  _438
REMARK  179  A    between atoms: _438  and  _439
REMARK  180  A    between atoms: _438  and  _441
REMARK  181  A    between atoms: _441  and  _442
REMARK  182  A    between atoms: _442  and  _443
REMARK  183  A    between atoms: _445  and  _447
REMARK  184  A    between atoms: _447  and  _448
REMARK  185  A    between atoms: _447  and  _450
REMARK  186  A    between atoms: _450  and  _451
REMARK  187  A    between atoms: _451  and  _452
REMARK  188  A    between atoms: _452  and  _453
REMARK  189  A    between atoms: _453  and  _454
REMARK  190  A    between atoms: _458  and  _460
REMARK  191  A    between atoms: _460  and  _461
REMARK  192  A    between atoms: _460  and  _463
REMARK  193  A    between atoms: _463  and  _464
REMARK  194  A    between atoms: _469  and  _471
REMARK  195  A    between atoms: _471  and  _472
REMARK  196  A    between atoms: _474  and  _476
REMARK  197  A    between atoms: _476  and  _477
REMARK  198  A    between atoms: _476  and  _479
REMARK  199  A    between atoms: _479  and  _480
REMARK  200  A    between atoms: _483  and  _485
REMARK  201  A    between atoms: _485  and  _486
REMARK  202  A    between atoms: _485  and  _488
REMARK  203  A    between atoms: _488  and  _489
REMARK  204  A    between atoms: _494  and  _496
REMARK  205  A    between atoms: _496  and  _497
REMARK  206  A    between atoms: _496  and  _499
REMARK  207  A    between atoms: _499  and  _500
REMARK  208  A    between atoms: _503  and  _505
REMARK  209  A    between atoms: _505  and  _506
REMARK  210  A    between atoms: _505  and  _508
REMARK  211  A    between atoms: _508  and  _509
REMARK  212  A    between atoms: _515  and  _517
REMARK  213  A    between atoms: _517  and  _518
REMARK  214  A    between atoms: _517  and  _520
REMARK  215  A    between atoms: _520  and  _521
REMARK  216  A    between atoms: _526  and  _528
REMARK  217  A    between atoms: _528  and  _529
REMARK  218  A    between atoms: _528  and  _531
REMARK  219  A    between atoms: _531  and  _532
REMARK  220  A    between atoms: _532  and  _533
REMARK  221  A    between atoms: _533  and  _534
REMARK  222  A    between atoms: _543  and  _545
REMARK  223  A    between atoms: _545  and  _546
REMARK  224  A    between atoms: _545  and  _548
REMARK  225  A    between atoms: _548  and  _549
REMARK  226  A    between atoms: _554  and  _556
REMARK  227  A    between atoms: _556  and  _557
REMARK  228  A    between atoms: _556  and  _559
REMARK  229  A    between atoms: _561  and  _563
REMARK  230  A    between atoms: _563  and  _564
REMARK  231  A    between atoms: _563  and  _566
REMARK  232  A    between atoms: _566  and  _567
REMARK  233  A    between atoms: _567  and  _568
REMARK  234  A    between atoms: _570  and  _572
REMARK  235  A    between atoms: _572  and  _573
REMARK  236  A    between atoms: _572  and  _575
REMARK  237  A    between atoms: _575  and  _576
REMARK  238  A    between atoms: _579  and  _581
REMARK  239  A    between atoms: _581  and  _582
REMARK  240  A    between atoms: _581  and  _584
REMARK  241  A    between atoms: _584  and  _585
REMARK  242  A    between atoms: _585  and  _586
REMARK  243  A    between atoms: _586  and  _587
REMARK  244  A    between atoms: _587  and  _588
REMARK  245  A    between atoms: _592  and  _594
REMARK  246  A    between atoms: _594  and  _595
REMARK  247  A    between atoms: _594  and  _597
REMARK  248  A    between atoms: _600  and  _602
REMARK  249  A    between atoms: _602  and  _603
REMARK  250  A    between atoms: _606  and  _608
REMARK  251  A    between atoms: _608  and  _609
REMARK  252  A    between atoms: _608  and  _611
REMARK  253  A    between atoms: _611  and  _612
REMARK  254  A    between atoms: _615  and  _617
REMARK  255  A    between atoms: _617  and  _618
REMARK  256  A    between atoms: _617  and  _620
REMARK  257  A    between atoms: _620  and  _621
REMARK  258  A    between atoms: _627  and  _629
REMARK  259  A    between atoms: _629  and  _630
REMARK                            x       y       z     vdW  Elec       q    Type
REMARK                         _______ _______ _______ _____ _____    ______ ____
ROOT
ATOM      1  CA  GLU A   5      28.213   0.125  -6.363  0.00  0.00    +0.149 C 
ENDROOT
BRANCH   1   2
ATOM      2  C   GLU A   5      29.115   0.312  -7.583  0.00  0.00    +0.241 C 
ATOM      3  N   GLY A   6      29.849   1.423  -7.603  0.00  0.00    -0.295 N 
ATOM      4  H   GLY A   6      29.739   2.107  -6.827  0.00  0.00    +0.150 HD
ATOM      5  O   GLU A   5      29.142  -0.534  -8.476  0.00  0.00    -0.273 OA
BRANCH   3   6
ATOM      6  CA  GLY A   6      30.803   1.722  -8.670  0.00  0.00    +0.176 C 
BRANCH   6   7
ATOM      7  C   GLY A   6      31.964   0.752  -8.689  0.00  0.00    +0.243 C 
ATOM      8  N   ILE A   7      32.445   0.388  -7.501  0.00  0.00    -0.297 N 
ATOM      9  H   ILE A   7      32.032   0.810  -6.645  0.00  0.00    +0.150 HD
ATOM     10  O   GLY A   6      32.421   0.347  -9.755  0.00  0.00    -0.273 OA
BRANCH   8  11
ATOM     11  CA  ILE A   7      33.535  -0.586  -7.351  0.00  0.00    +0.149 C 
BRANCH  11  12
ATOM     12  C   ILE A   7      33.144  -1.953  -7.943  0.00  0.00    +0.241 C 
ATOM     13  N   ILE A   8      31.954  -2.432  -7.583  0.00  0.00    -0.297 N 
ATOM     14  H   ILE A   8      31.365  -1.866  -6.939  0.00  0.00    +0.150 HD
ATOM     15  O   ILE A   7      33.902  -2.542  -8.717  0.00  0.00    -0.273 OA
BRANCH  13  16
ATOM     16  CA  ILE A   8      31.436  -3.721  -8.053  0.00  0.00    +0.149 C 
BRANCH  16  17
ATOM     17  C   ILE A   8      31.328  -3.767  -9.579  0.00  0.00    +0.241 C 
ATOM     18  N   MET A   9      30.710  -2.738 -10.155  0.00  0.00    -0.297 N 
ATOM     19  H   MET A   9      30.439  -1.922  -9.570  0.00  0.00    +0.150 HD
ATOM     20  O   ILE A   8      31.810  -4.710 -10.216  0.00  0.00    -0.273 OA
BRANCH  18  21
ATOM     21  CA  MET A   9      30.400  -2.719 -11.587  0.00  0.00    +0.149 C 
BRANCH  21  22
ATOM     22  C   MET A   9      31.644  -2.584 -12.453  0.00  0.00    +0.241 C 
ATOM     23  N   LYS A  10      32.647  -1.878 -11.936  0.00  0.00    -0.298 N 
ATOM     24  H   LYS A  10      32.539  -1.479 -10.982  0.00  0.00    +0.150 HD
ATOM     25  O   MET A   9      31.695  -3.119 -13.565  0.00  0.00    -0.273 OA
BRANCH  23  26
ATOM     26  CA  LYS A  10      33.895  -1.644 -12.662  0.00  0.00    +0.137 C 
BRANCH  26  27
ATOM     27  C   LYS A  10      34.660  -2.940 -12.930  0.00  0.00    +0.227 C 
ATOM     28  O   LYS A  10      35.374  -3.043 -13.925  0.00  0.00    -0.286 OA
ENDBRANCH  26  27
BRANCH  26  29
ATOM     29  CB  LYS A  10      34.772  -0.637 -11.908  0.00  0.00    +0.028 C 
BRANCH  29  30
ATOM     30  CG  LYS A  10      35.956  -0.083 -12.702  0.00  0.00    -0.000 C 
BRANCH  30  31
ATOM     31  CD  LYS A  10      35.486   0.667 -13.941  0.00  0.00    -0.024 C 
BRANCH  31  32
ATOM     32  CE  LYS A  10      36.610   1.447 -14.591  0.00  0.00    -0.086 C 
BRANCH  32  33
ATOM     33  NZ  LYS A  10      37.711   0.580 -15.053  0.00  0.00    +0.380 N 
ATOM     34  HZ1 LYS A  10      38.108   0.064 -14.242  0.00  0.00    -0.089 HD
ATOM     35  HZ2 LYS A  10      38.452   1.165 -15.489  0.00  0.00    -0.089 HD
ATOM     36  HZ3 LYS A  10      37.347  -0.098 -15.752  0.00  0.00    -0.089 HD
ENDBRANCH  32  33
ENDBRANCH  31  32
ENDBRANCH  30  31
ENDBRANCH  29  30
ENDBRANCH  26  29
ENDBRANCH  23  26
ENDBRANCH  21  22
BRANCH  21  37
ATOM     37  CB  MET A   9      29.398  -1.607 -11.899  0.00  0.00    +0.041 C 
BRANCH  37  38
ATOM     38  CG  MET A   9      28.873  -1.633 -13.313  0.00  0.00    +0.060 C 
BRANCH  38  39
ATOM     39  SD  MET A   9      27.730  -0.291 -13.599  0.00  0.00    -0.139 S 
ATOM     40  CE  MET A   9      27.402  -0.542 -15.349  0.00  0.00    +0.069 C 
ENDBRANCH  38  39
ENDBRANCH  37  38
ENDBRANCH  21  37
ENDBRANCH  18  21
ENDBRANCH  16  17
BRANCH  16  41
ATOM     41  CB  ILE A   8      30.048  -4.041  -7.415  0.00  0.00    +0.027 C 
ATOM     42  CG2 ILE A   8      29.363  -5.219  -8.121  0.00  0.00    +0.002 C 
BRANCH  41  43
ATOM     43  CG1 ILE A   8      30.187  -4.335  -5.916  0.00  0.00    +0.002 C 
ATOM     44  CD1 ILE A   8      28.872  -4.171  -5.154  0.00  0.00    +0.000 C 
ENDBRANCH  41  43
ENDBRANCH  16  41
ENDBRANCH  13  16
ENDBRANCH  11  12
BRANCH  11  45
ATOM     45  CB  ILE A   7      33.958  -0.724  -5.859  0.00  0.00    +0.027 C 
ATOM     46  CG2 ILE A   7      34.789  -1.979  -5.635  0.00  0.00    +0.002 C 
BRANCH  45  47
ATOM     47  CG1 ILE A   7      34.738   0.517  -5.401  0.00  0.00    +0.002 C 
ATOM     48  CD1 ILE A   7      34.867   0.648  -3.880  0.00  0.00    +0.000 C 
ENDBRANCH  45  47
ENDBRANCH  11  45
ENDBRANCH   8  11
ENDBRANCH   6   7
ENDBRANCH   3   6
ENDBRANCH   1   2
BRANCH   1  50
ATOM     49  C   THR A   4      30.091  -0.059  -4.806  0.00  0.00    +0.243 C 
ATOM     50  N   GLU A   5      28.939   0.500  -5.157  0.00  0.00    -0.297 N 
ATOM     51  H   GLU A   5      28.537   1.238  -4.544  0.00  0.00    +0.150 HD
ATOM     52  O   THR A   4      30.596  -0.999  -5.415  0.00  0.00    -0.273 OA
BRANCH  49  53
ATOM     53  CA  THR A   4      30.792   0.549  -3.586  0.00  0.00    +0.176 C 
BRANCH  53  55
ATOM     54  C   LEU A   3      31.214   2.777  -4.517  0.00  0.00    +0.241 C 
ATOM     55  N   THR A   4      30.680   2.007  -3.570  0.00  0.00    -0.295 N 
ATOM     56  H   THR A   4      30.164   2.460  -2.789  0.00  0.00    +0.150 HD
ATOM     57  O   LEU A   3      31.840   2.330  -5.480  0.00  0.00    -0.273 OA
BRANCH  54  58
ATOM     58  CA  LEU A   3      31.020   4.281  -4.344  0.00  0.00    +0.149 C 
BRANCH  58  60
ATOM     59  C   PHE A   2      28.640   4.308  -4.954  0.00  0.00    +0.241 C 
ATOM     60  N   LEU A   3      29.619   4.648  -4.117  0.00  0.00    -0.297 N 
ATOM     61  H   LEU A   3      29.379   5.197  -3.267  0.00  0.00    +0.150 HD
ATOM     62  O   PHE A   2      28.841   3.695  -6.010  0.00  0.00    -0.273 OA
BRANCH  59  63
ATOM     63  CA  PHE A   2      27.215   4.710  -4.539  0.00  0.00    +0.153 C 
BRANCH  63  65
ATOM     64  C   GLN A   1      27.020   3.182  -2.592  0.00  0.00    +0.238 C 
ATOM     65  N   PHE A   2      26.911   4.395  -3.135  0.00  0.00    -0.297 N 
ATOM     66  H   PHE A   2      26.589   5.172  -2.523  0.00  0.00    +0.150 HD
ATOM     67  O   GLN A   1      27.365   2.179  -3.225  0.00  0.00    -0.274 OA
BRANCH  64  68
ATOM     68  CA  GLN A   1      26.694   3.091  -1.094  0.00  0.00    +0.145 C 
BRANCH  68  69
ATOM     69  N   GLN A   1      27.386   4.146  -0.338  0.00  0.00    -0.238 NA
ATOM     70  H   GLN A   1      26.820   4.785   0.256  0.00  0.00    +0.142 HD
ENDBRANCH  68  69
BRANCH  68  71
ATOM     71  CB  GLN A   1      25.172   3.180  -0.883  0.00  0.00    +0.036 C 
BRANCH  71  72
ATOM     72  CG  GLN A   1      24.687   2.891   0.544  0.00  0.00    +0.087 C 
BRANCH  72  73
ATOM     73  CD  GLN A   1      23.203   3.232   0.775  0.00  0.00    +0.219 C 
ATOM     74  NE2 GLN A   1      22.897   3.767   1.959  0.00  0.00    -0.329 N 
ATOM     75 HE21 GLN A   1      23.646   3.943   2.659  0.00  0.00    +0.145 HD
ATOM     76 HE22 GLN A   1      21.910   4.007   2.181  0.00  0.00    +0.145 HD
ATOM     77  OE1 GLN A   1      22.351   3.003  -0.090  0.00  0.00    -0.275 OA
ENDBRANCH  72  73
ENDBRANCH  71  72
ENDBRANCH  68  71
ENDBRANCH  64  68
ENDBRANCH  63  65
BRANCH  63  78
ATOM     78  CB  PHE A   2      26.945   6.206  -4.780  0.00  0.00    +0.055 C 
BRANCH  78  79
ATOM     79  CG  PHE A   2      27.541   6.749  -6.049  0.00  0.00    -0.020 A 
ATOM     80  CD2 PHE A   2      28.766   7.407  -6.027  0.00  0.00    -0.004 A 
ATOM     81  CE2 PHE A   2      29.324   7.915  -7.192  0.00  0.00    -0.000 A 
ATOM     82  CZ  PHE A   2      28.639   7.782  -8.400  0.00  0.00    -0.000 A 
ATOM     83  CE1 PHE A   2      27.412   7.142  -8.433  0.00  0.00    -0.000 A 
ATOM     84  CD1 PHE A   2      26.863   6.633  -7.260  0.00  0.00    -0.004 A 
ENDBRANCH  78  79
ENDBRANCH  63  78
ENDBRANCH  59  63
ENDBRANCH  58  60
BRANCH  58  85
ATOM     85  CB  LEU A   3      31.912   4.769  -3.188  0.00  0.00    +0.029 C 
BRANCH  85  86
ATOM     86  CG  LEU A   3      32.010   6.255  -2.851  0.00  0.00    +0.002 C 
ATOM     87  CD2 LEU A   3      33.257   6.514  -2.010  0.00  0.00    +0.000 C 
ATOM     88  CD1 LEU A   3      32.028   7.107  -4.116  0.00  0.00    +0.000 C 
ENDBRANCH  85  86
ENDBRANCH  58  85
ENDBRANCH  54  58
ENDBRANCH  53  55
BRANCH  53  89
ATOM     89  CB  THR A   4      30.274  -0.052  -2.261  0.00  0.00    +0.137 C 
ATOM     90  CG2 THR A   4      30.048  -1.559  -2.367  0.00  0.00    +0.034 C 
BRANCH  89  91
ATOM     91  OG1 THR A   4      31.244   0.197  -1.242  0.00  0.00    -0.382 OA
ATOM     92  HG1 THR A   4      30.926  -0.183  -0.385  0.00  0.00    +0.210 HD
ENDBRANCH  89  91
ENDBRANCH  53  89
ENDBRANCH  49  53
ENDBRANCH   1  50
BRANCH   1  93
ATOM     93  CB  GLU A   5      27.001   1.027  -6.506  0.00  0.00    +0.041 C 
BRANCH  93  94
ATOM     94  CG  GLU A   5      25.684   0.323  -6.591  0.00  0.00    +0.116 C 
BRANCH  94  95
ATOM     95  CD  GLU A   5      24.573   1.172  -6.006  0.00  0.00    +0.365 C 
ATOM     96  OE2 GLU A   5      24.211   0.945  -4.830  0.00  0.00    -0.246 OA
ATOM     97  OE1 GLU A   5      24.065   2.068  -6.711  0.00  0.00    -0.246 OA
ENDBRANCH  94  95
ENDBRANCH  93  94
ENDBRANCH   1  93
TORSDOF 44
REMARK  Name = ../refined-set-2016/3u6h/3u6h_pocket.pdb
REMARK  259 active torsions:
REMARK  status: ('A' for Active; 'I' for Inactive)
REMARK    1  A    between atoms: _1  and  _3
REMARK    2  A    between atoms: _3  and  _4
REMARK    3  A    between atoms: _3  and  _6
REMARK    4  A    between atoms: _9  and  _11
REMARK    5  A    between atoms: _11  and  _12
REMARK    6  A    between atoms: _11  and  _14
REMARK    7  A    between atoms: _17  and  _19
REMARK    8  A    between atoms: _19  and  _20
REMARK    9  A    between atoms: _19  and  _22
REMARK   10  A    between atoms: _22  and  _23
REMARK   11  A    between atoms: _26  and  _28
REMARK   12  A    between atoms: _28  and  _29
REMARK   13  A    between atoms: _31  and  _33
REMARK   14  A    between atoms: _33  and  _34
REMARK   15  A    between atoms: _33  and  _36
REMARK   16  A    between atoms: _36  and  _37
REMARK   17  A    between atoms: _37  and  _38
REMARK   18  A    between atoms: _38  and  _39
REMARK   19  A    between atoms: _48  and  _50
REMARK   20  A    between atoms: _50  and  _51
REMARK   21  A    between atoms: _53  and  _55
REMARK   22  A    between atoms: _55  and  _56
REMARK   23  A    between atoms: _55  and  _58
REMARK   24  A    between atoms: _58  and  _59
REMARK   25  A    between atoms: _64  and  _66
REMARK   26  A    between atoms: _66  and  _67
REMARK   27  A    between atoms: _66  and  _69
REMARK   28  A    between atoms: _69  and  _70
REMARK   29  A    between atoms: _76  and  _78
REMARK   30  A    between atoms: _78  and  _79
REMARK   31  A    between atoms: _81  and  _83
REMARK   32  A    between atoms: _83  and  _84
REMARK   33  A    between atoms: _83  and  _86
REMARK   34  A    between atoms: _88  and  _90
REMARK   35  A    between atoms: _90  and  _91
REMARK   36  A    between atoms: _90  and  _93
REMARK   37  A    between atoms: _96  and  _98
REMARK   38  A    between atoms: _98  and  _99
REMARK   39  A    between atoms: _98  and  _101
REMARK   40  A    between atoms: _101  and  _102
REMARK   41  A    between atoms: _107  and  _108
REMARK   42  A    between atoms: _110  and  _112
REMARK   43  A    between atoms: _112  and  _113
REMARK   44  A    between atoms: _112  and  _115
REMARK   45  A    between atoms: _115  and  _116
REMARK   46  A    between atoms: _121  and  _123
REMARK   47  A    between atoms: _123  and  _124
REMARK   48  A    between atoms: _123  and  _126
REMARK   49  A    between atoms: _126  and  _127
REMARK   50  A    between atoms: _132  and  _134
REMARK   51  A    between atoms: _134  and  _135
REMARK   52  A    between atoms: _134  and  _137
REMARK   53  A    between atoms: _139  and  _141
REMARK   54  A    between atoms: _141  and  _142
REMARK   55  A    between atoms: _145  and  _147
REMARK   56  A    between atoms: _147  and  _148
REMARK   57  A    between atoms: _147  and  _150
REMARK   58  A    between atoms: _153  and  _155
REMARK   59  A    between atoms: _155  and  _156
REMARK   60  A    between atoms: _155  and  _158
REMARK   61  A    between atoms: _158  and  _159
REMARK   62  A    between atoms: _159  and  _160
REMARK   63  A    between atoms: _160  and  _161
REMARK   64  A    between atoms: _161  and  _162
REMARK   65  A    between atoms: _166  and  _168
REMARK   66  A    between atoms: _168  and  _169
REMARK   67  A    between atoms: _168  and  _171
REMARK   68  A    between atoms: _171  and  _172
REMARK   69  A    between atoms: _174  and  _176
REMARK   70  A    between atoms: _176  and  _177
REMARK   71  A    between atoms: _176  and  _179
REMARK   72  A    between atoms: _179  and  _180
REMARK   73  A    between atoms: _183  and  _185
REMARK   74  A    between atoms: _185  and  _186
REMARK   75  A    between atoms: _185  and  _188
REMARK   76  A    between atoms: _188  and  _189
REMARK   77  A    between atoms: _192  and  _194
REMARK   78  A    between atoms: _194  and  _195
REMARK   79  A    between atoms: _194  and  _197
REMARK   80  A    between atoms: _197  and  _198
REMARK   81  A    between atoms: _198  and  _199
REMARK   82  A    between atoms: _202  and  _204
REMARK   83  A    between atoms: _204  and  _205
REMARK   84  A    between atoms: _204  and  _207
REMARK   85  A    between atoms: _210  and  _212
REMARK   86  A    between atoms: _212  and  _213
REMARK   87  A    between atoms: _212  and  _215
REMARK   88  A    between atoms: _215  and  _216
REMARK   89  A    between atoms: _216  and  _217
REMARK   90  A    between atoms: _222  and  _224
REMARK   91  A    between atoms: _224  and  _225
REMARK   92  A    between atoms: _224  and  _227
REMARK   93  A    between atoms: _227  and  _228
REMARK   94  A    between atoms: _234  and  _236
REMARK   95  A    between atoms: _236  and  _237
REMARK   96  A    between atoms: _236  and  _239
REMARK   97  A    between atoms: _239  and  _240
REMARK   98  A    between atoms: _243  and  _245
REMARK   99  A    between atoms: _245  and  _246
REMARK  100  A    between atoms: _245  and  _248
REMARK  101  A    between atoms: _248  and  _249
REMARK  102  A    between atoms: _252  and  _254
REMARK  103  A    between atoms: _254  and  _255
REMARK  104  A    between atoms: _254  and  _257
REMARK  105  A    between atoms: _257  and  _258
REMARK  106  A    between atoms: _258  and  _259
REMARK  107  A    between atoms: _262  and  _264
REMARK  108  A    between atoms: _264  and  _265
REMARK  109  A    between atoms: _267  and  _269
REMARK  110  A    between atoms: _269  and  _270
REMARK  111  A    between atoms: _269  and  _272
REMARK  112  A    between atoms: _272  and  _273
REMARK  113  A    between atoms: _276  and  _278
REMARK  114  A    between atoms: _278  and  _279
REMARK  115  A    between atoms: _278  and  _281
REMARK  116  A    between atoms: _281  and  _282
REMARK  117  A    between atoms: _285  and  _287
REMARK  118  A    between atoms: _287  and  _288
REMARK  119  A    between atoms: _287  and  _290
REMARK  120  A    between atoms: _290  and  _291
REMARK  121  A    between atoms: _291  and  _292
REMARK  122  A    between atoms: _294  and  _296
REMARK  123  A    between atoms: _296  and  _297
REMARK  124  A    between atoms: _296  and  _299
REMARK  125  A    between atoms: _299  and  _300
REMARK  126  A    between atoms: _300  and  _301
REMARK  127  A    between atoms: _301  and  _302
REMARK  128  A    between atoms: _302  and  _303
REMARK  129  A    between atoms: _307  and  _309
REMARK  130  A    between atoms: _309  and  _310
REMARK  131  A    between atoms: _309  and  _312
REMARK  132  A    between atoms: _312  and  _313
REMARK  133  A    between atoms: _319  and  _321
REMARK  134  A    between atoms: _321  and  _322
REMARK  135  A    between atoms: _321  and  _324
REMARK  136  A    between atoms: _327  and  _329
REMARK  137  A    between atoms: _329  and  _330
REMARK  138  A    between atoms: _329  and  _332
REMARK  139  A    between atoms: _332  and  _333
REMARK  140  A    between atoms: _336  and  _338
REMARK  141  A    between atoms: _338  and  _339
REMARK  142  A    between atoms: _338  and  _341
REMARK  143  A    between atoms: _341  and  _342
REMARK  144  A    between atoms: _344  and  _346
REMARK  145  A    between atoms: _346  and  _347
REMARK  146  A    between atoms: _346  and  _349
REMARK  147  A    between atoms: _349  and  _350
REMARK  148  A    between atoms: _353  and  _355
REMARK  149  A    between atoms: _355  and  _356
REMARK  150  A    between atoms: _358  and  _360
REMARK  151  A    between atoms: _360  and  _361
REMARK  152  A    between atoms: _360  and  _363
REMARK  153  A    between atoms: _363  and  _364
REMARK  154  A    between atoms: _367  and  _369
REMARK  155  A    between atoms: _369  and  _370
REMARK  156  A    between atoms: _369  and  _372
REMARK  157  A    between atoms: _375  and  _376
REMARK  158  A    between atoms: _381  and  _383
REMARK  159  A    between atoms: _383  and  _384
REMARK  160  A    between atoms: _383  and  _386
REMARK  161  A    between atoms: _386  and  _387
REMARK  162  A    between atoms: _390  and  _392
REMARK  163  A    between atoms: _392  and  _393
REMARK  164  A    between atoms: _392  and  _395
REMARK  165  A    between atoms: _398  and  _400
REMARK  166  A    between atoms: _400  and  _401
REMARK  167  A    between atoms: _400  and  _403
REMARK  168  A    between atoms: _406  and  _408
REMARK  169  A    between atoms: _408  and  _409
REMARK  170  A    between atoms: _408  and  _411
REMARK  171  A    between atoms: _411  and  _412
REMARK  172  A    between atoms: _416  and  _417
REMARK  173  A    between atoms: _422  and  _424
REMARK  174  A    between atoms: _424  and  _425
REMARK  175  A    between atoms: _424  and  _427
REMARK  176  A    between atoms: _427  and  _428
REMARK  177  A    between atoms: _433  and  _434
REMARK  178  A    between atoms: _436  and  _438
REMARK  179  A    between atoms: _438  and  _439
REMARK  180  A    between atoms: _438  and  _441
REMARK  181  A    between atoms: _441  and  _442
REMARK  182  A    between atoms: _442  and  _443
REMARK  183  A    between atoms: _445  and  _447
REMARK  184  A    between atoms: _447  and  _448
REMARK  185  A    between atoms: _447  and  _450
REMARK  186  A    between atoms: _450  and  _451
REMARK  187  A    between atoms: _451  and  _452
REMARK  188  A    between atoms: _452  and  _453
REMARK  189  A    between atoms: _453  and  _454
REMARK  190  A    between atoms: _458  and  _460
REMARK  191  A    between atoms: _460  and  _461
REMARK  192  A    between atoms: _460  and  _463
REMARK  193  A    between atoms: _463  and  _464
REMARK  194  A    between atoms: _469  and  _471
REMARK  195  A    between atoms: _471  and  _472
REMARK  196  A    between atoms: _474  and  _476
REMARK  197  A    between atoms: _476  and  _477
REMARK  198  A    between atoms: _476  and  _479
REMARK  199  A    between atoms: _479  and  _480
REMARK  200  A    between atoms: _483  and  _485
REMARK  201  A    between atoms: _485  and  _486
REMARK  202  A    between atoms: _485  and  _488
REMARK  203  A    between atoms: _488  and  _489
REMARK  204  A    between atoms: _494  and  _496
REMARK  205  A    between atoms: _496  and  _497
REMARK  206  A    between atoms: _496  and  _499
REMARK  207  A    between atoms: _499  and  _500
REMARK  208  A    between atoms: _503  and  _505
REMARK  209  A    between atoms: _505  and  _506
REMARK  210  A    between atoms: _505  and  _508
REMARK  211  A    between atoms: _508  and  _509
REMARK  212  A    between atoms: _515  and  _517
REMARK  213  A    between atoms: _517  and  _518
REMARK  214  A    between atoms: _517  and  _520
REMARK  215  A    between atoms: _520  and  _521
REMARK  216  A    between atoms: _526  and  _528
REMARK  217  A    between atoms: _528  and  _529
REMARK  218  A    between atoms: _528  and  _531
REMARK  219  A    between atoms: _531  and  _532
REMARK  220  A    between atoms: _532  and  _533
REMARK  221  A    between atoms: _533  and  _534
REMARK  222  A    between atoms: _543  and  _545
REMARK  223  A    between atoms: _545  and  _546
REMARK  224  A    between atoms: _545  and  _548
REMARK  225  A    between atoms: _548  and  _549
REMARK  226  A    between atoms: _554  and  _556
REMARK  227  A    between atoms: _556  and  _557
REMARK  228  A    between atoms: _556  and  _559
REMARK  229  A    between atoms: _561  and  _563
REMARK  230  A    between atoms: _563  and  _564
REMARK  231  A    between atoms: _563  and  _566
REMARK  232  A    between atoms: _566  and  _567
REMARK  233  A    between atoms: _567  and  _568
REMARK  234  A    between atoms: _570  and  _572
REMARK  235  A    between atoms: _572  and  _573
REMARK  236  A    between atoms: _572  and  _575
REMARK  237  A    between atoms: _575  and  _576
REMARK  238  A    between atoms: _579  and  _581
REMARK  239  A    between atoms: _581  and  _582
REMARK  240  A    between atoms: _581  and  _584
REMARK  241  A    between atoms: _584  and  _585
REMARK  242  A    between atoms: _585  and  _586
REMARK  243  A    between atoms: _586  and  _587
REMARK  244  A    between atoms: _587  and  _588
REMARK  245  A    between atoms: _592  and  _594
REMARK  246  A    between atoms: _594  and  _595
REMARK  247  A    between atoms: _594  and  _597
REMARK  248  A    between atoms: _600  and  _602
REMARK  249  A    between atoms: _602  and  _603
REMARK  250  A    between atoms: _606  and  _608
REMARK  251  A    between atoms: _608  and  _609
REMARK  252  A    between atoms: _608  and  _611
REMARK  253  A    between atoms: _611  and  _612
REMARK  254  A    between atoms: _615  and  _617
REMARK  255  A    between atoms: _617  and  _618
REMARK  256  A    between atoms: _617  and  _620
REMARK  257  A    between atoms: _620  and  _621
REMARK  258  A    between atoms: _627  and  _629
REMARK  259  A    between atoms: _629  and  _630
REMARK                            x       y       z     vdW  Elec       q    Type
REMARK                         _______ _______ _______ _____ _____    ______ ____
ROOT
ATOM      1  CB  PHE A   1      30.979  -6.238 -14.679  0.00  0.00    +0.051 C 
ENDROOT
BRANCH   1   2
ATOM      2  CG  PHE A   1      30.272  -6.631 -13.405  0.00  0.00    -0.020 A 
ATOM      3  CD2 PHE A   1      30.819  -7.566 -12.532  0.00  0.00    -0.004 A 
ATOM      4  CE2 PHE A   1      30.162  -7.920 -11.361  0.00  0.00    -0.000 A 
ATOM      5  CZ  PHE A   1      28.922  -7.368 -11.069  0.00  0.00    -0.000 A 
ATOM      6  CE1 PHE A   1      28.359  -6.445 -11.937  0.00  0.00    -0.000 A 
ATOM      7  CD1 PHE A   1      29.030  -6.086 -13.099  0.00  0.00    -0.004 A 
ENDBRANCH   1   2
BRANCH   1   8
ATOM      8  CA  PHE A   1      32.478  -6.560 -14.698  0.00  0.00    +0.137 C 
BRANCH   8   9
ATOM      9  N   PHE A   1      33.198  -5.800 -13.678  0.00  0.00    -0.239 NA
ATOM     10  H   PHE A   1      32.700  -5.042 -13.170  0.00  0.00    +0.142 HD
ENDBRANCH   8   9
BRANCH   8  11
ATOM     11  C   PHE A   1      33.039  -6.292 -16.084  0.00  0.00    +0.224 C 
ATOM     12  O   PHE A   1      33.275  -5.147 -16.451  0.00  0.00    -0.287 OA
ENDBRANCH   8  11
ENDBRANCH   1   8
TORSDOF 4
REMARK  Name = ../refined-set-2016/3u6h/3u6h_pocket.pdb
REMARK  259 active torsions:
REMARK  status: ('A' for Active; 'I' for Inactive)
REMARK    1  A    between atoms: _1  and  _3
REMARK    2  A    between atoms: _3  and  _4
REMARK    3  A    between atoms: _3  and  _6
REMARK    4  A    between atoms: _9  and  _11
REMARK    5  A    between atoms: _11  and  _12
REMARK    6  A    between atoms: _11  and  _14
REMARK    7  A    between atoms: _17  and  _19
REMARK    8  A    between atoms: _19  and  _20
REMARK    9  A    between atoms: _19  and  _22
REMARK   10  A    between atoms: _22  and  _23
REMARK   11  A    between atoms: _26  and  _28
REMARK   12  A    between atoms: _28  and  _29
REMARK   13  A    between atoms: _31  and  _33
REMARK   14  A    between atoms: _33  and  _34
REMARK   15  A    between atoms: _33  and  _36
REMARK   16  A    between atoms: _36  and  _37
REMARK   17  A    between atoms: _37  and  _38
REMARK   18  A    between atoms: _38  and  _39
REMARK   19  A    between atoms: _48  and  _50
REMARK   20  A    between atoms: _50  and  _51
REMARK   21  A    between atoms: _53  and  _55
REMARK   22  A    between atoms: _55  and  _56
REMARK   23  A    between atoms: _55  and  _58
REMARK   24  A    between atoms: _58  and  _59
REMARK   25  A    between atoms: _64  and  _66
REMARK   26  A    between atoms: _66  and  _67
REMARK   27  A    between atoms: _66  and  _69
REMARK   28  A    between atoms: _69  and  _70
REMARK   29  A    between atoms: _76  and  _78
REMARK   30  A    between atoms: _78  and  _79
REMARK   31  A    between atoms: _81  and  _83
REMARK   32  A    between atoms: _83  and  _84
REMARK   33  A    between atoms: _83  and  _86
REMARK   34  A    between atoms: _88  and  _90
REMARK   35  A    between atoms: _90  and  _91
REMARK   36  A    between atoms: _90  and  _93
REMARK   37  A    between atoms: _96  and  _98
REMARK   38  A    between atoms: _98  and  _99
REMARK   39  A    between atoms: _98  and  _101
REMARK   40  A    between atoms: _101  and  _102
REMARK   41  A    between atoms: _107  and  _108
REMARK   42  A    between atoms: _110  and  _112
REMARK   43  A    between atoms: _112  and  _113
REMARK   44  A    between atoms: _112  and  _115
REMARK   45  A    between atoms: _115  and  _116
REMARK   46  A    between atoms: _121  and  _123
REMARK   47  A    between atoms: _123  and  _124
REMARK   48  A    between atoms: _123  and  _126
REMARK   49  A    between atoms: _126  and  _127
REMARK   50  A    between atoms: _132  and  _134
REMARK   51  A    between atoms: _134  and  _135
REMARK   52  A    between atoms: _134  and  _137
REMARK   53  A    between atoms: _139  and  _141
REMARK   54  A    between atoms: _141  and  _142
REMARK   55  A    between atoms: _145  and  _147
REMARK   56  A    between atoms: _147  and  _148
REMARK   57  A    between atoms: _147  and  _150
REMARK   58  A    between atoms: _153  and  _155
REMARK   59  A    between atoms: _155  and  _156
REMARK   60  A    between atoms: _155  and  _158
REMARK   61  A    between atoms: _158  and  _159
REMARK   62  A    between atoms: _159  and  _160
REMARK   63  A    between atoms: _160  and  _161
REMARK   64  A    between atoms: _161  and  _162
REMARK   65  A    between atoms: _166  and  _168
REMARK   66  A    between atoms: _168  and  _169
REMARK   67  A    between atoms: _168  and  _171
REMARK   68  A    between atoms: _171  and  _172
REMARK   69  A    between atoms: _174  and  _176
REMARK   70  A    between atoms: _176  and  _177
REMARK   71  A    between atoms: _176  and  _179
REMARK   72  A    between atoms: _179  and  _180
REMARK   73  A    between atoms: _183  and  _185
REMARK   74  A    between atoms: _185  and  _186
REMARK   75  A    between atoms: _185  and  _188
REMARK   76  A    between atoms: _188  and  _189
REMARK   77  A    between atoms: _192  and  _194
REMARK   78  A    between atoms: _194  and  _195
REMARK   79  A    between atoms: _194  and  _197
REMARK   80  A    between atoms: _197  and  _198
REMARK   81  A    between atoms: _198  and  _199
REMARK   82  A    between atoms: _202  and  _204
REMARK   83  A    between atoms: _204  and  _205
REMARK   84  A    between atoms: _204  and  _207
REMARK   85  A    between atoms: _210  and  _212
REMARK   86  A    between atoms: _212  and  _213
REMARK   87  A    between atoms: _212  and  _215
REMARK   88  A    between atoms: _215  and  _216
REMARK   89  A    between atoms: _216  and  _217
REMARK   90  A    between atoms: _222  and  _224
REMARK   91  A    between atoms: _224  and  _225
REMARK   92  A    between atoms: _224  and  _227
REMARK   93  A    between atoms: _227  and  _228
REMARK   94  A    between atoms: _234  and  _236
REMARK   95  A    between atoms: _236  and  _237
REMARK   96  A    between atoms: _236  and  _239
REMARK   97  A    between atoms: _239  and  _240
REMARK   98  A    between atoms: _243  and  _245
REMARK   99  A    between atoms: _245  and  _246
REMARK  100  A    between atoms: _245  and  _248
REMARK  101  A    between atoms: _248  and  _249
REMARK  102  A    between atoms: _252  and  _254
REMARK  103  A    between atoms: _254  and  _255
REMARK  104  A    between atoms: _254  and  _257
REMARK  105  A    between atoms: _257  and  _258
REMARK  106  A    between atoms: _258  and  _259
REMARK  107  A    between atoms: _262  and  _264
REMARK  108  A    between atoms: _264  and  _265
REMARK  109  A    between atoms: _267  and  _269
REMARK  110  A    between atoms: _269  and  _270
REMARK  111  A    between atoms: _269  and  _272
REMARK  112  A    between atoms: _272  and  _273
REMARK  113  A    between atoms: _276  and  _278
REMARK  114  A    between atoms: _278  and  _279
REMARK  115  A    between atoms: _278  and  _281
REMARK  116  A    between atoms: _281  and  _282
REMARK  117  A    between atoms: _285  and  _287
REMARK  118  A    between atoms: _287  and  _288
REMARK  119  A    between atoms: _287  and  _290
REMARK  120  A    between atoms: _290  and  _291
REMARK  121  A    between atoms: _291  and  _292
REMARK  122  A    between atoms: _294  and  _296
REMARK  123  A    between atoms: _296  and  _297
REMARK  124  A    between atoms: _296  and  _299
REMARK  125  A    between atoms: _299  and  _300
REMARK  126  A    between atoms: _300  and  _301
REMARK  127  A    between atoms: _301  and  _302
REMARK  128  A    between atoms: _302  and  _303
REMARK  129  A    between atoms: _307  and  _309
REMARK  130  A    between atoms: _309  and  _310
REMARK  131  A    between atoms: _309  and  _312
REMARK  132  A    between atoms: _312  and  _313
REMARK  133  A    between atoms: _319  and  _321
REMARK  134  A    between atoms: _321  and  _322
REMARK  135  A    between atoms: _321  and  _324
REMARK  136  A    between atoms: _327  and  _329
REMARK  137  A    between atoms: _329  and  _330
REMARK  138  A    between atoms: _329  and  _332
REMARK  139  A    between atoms: _332  and  _333
REMARK  140  A    between atoms: _336  and  _338
REMARK  141  A    between atoms: _338  and  _339
REMARK  142  A    between atoms: _338  and  _341
REMARK  143  A    between atoms: _341  and  _342
REMARK  144  A    between atoms: _344  and  _346
REMARK  145  A    between atoms: _346  and  _347
REMARK  146  A    between atoms: _346  and  _349
REMARK  147  A    between atoms: _349  and  _350
REMARK  148  A    between atoms: _353  and  _355
REMARK  149  A    between atoms: _355  and  _356
REMARK  150  A    between atoms: _358  and  _360
REMARK  151  A    between atoms: _360  and  _361
REMARK  152  A    between atoms: _360  and  _363
REMARK  153  A    between atoms: _363  and  _364
REMARK  154  A    between atoms: _367  and  _369
REMARK  155  A    between atoms: _369  and  _370
REMARK  156  A    between atoms: _369  and  _372
REMARK  157  A    between atoms: _375  and  _376
REMARK  158  A    between atoms: _381  and  _383
REMARK  159  A    between atoms: _383  and  _384
REMARK  160  A    between atoms: _383  and  _386
REMARK  161  A    between atoms: _386  and  _387
REMARK  162  A    between atoms: _390  and  _392
REMARK  163  A    between atoms: _392  and  _393
REMARK  164  A    between atoms: _392  and  _395
REMARK  165  A    between atoms: _398  and  _400
REMARK  166  A    between atoms: _400  and  _401
REMARK  167  A    between atoms: _400  and  _403
REMARK  168  A    between atoms: _406  and  _408
REMARK  169  A    between atoms: _408  and  _409
REMARK  170  A    between atoms: _408  and  _411
REMARK  171  A    between atoms: _411  and  _412
REMARK  172  A    between atoms: _416  and  _417
REMARK  173  A    between atoms: _422  and  _424
REMARK  174  A    between atoms: _424  and  _425
REMARK  175  A    between atoms: _424  and  _427
REMARK  176  A    between atoms: _427  and  _428
REMARK  177  A    between atoms: _433  and  _434
REMARK  178  A    between atoms: _436  and  _438
REMARK  179  A    between atoms: _438  and  _439
REMARK  180  A    between atoms: _438  and  _441
REMARK  181  A    between atoms: _441  and  _442
REMARK  182  A    between atoms: _442  and  _443
REMARK  183  A    between atoms: _445  and  _447
REMARK  184  A    between atoms: _447  and  _448
REMARK  185  A    between atoms: _447  and  _450
REMARK  186  A    between atoms: _450  and  _451
REMARK  187  A    between atoms: _451  and  _452
REMARK  188  A    between atoms: _452  and  _453
REMARK  189  A    between atoms: _453  and  _454
REMARK  190  A    between atoms: _458  and  _460
REMARK  191  A    between atoms: _460  and  _461
REMARK  192  A    between atoms: _460  and  _463
REMARK  193  A    between atoms: _463  and  _464
REMARK  194  A    between atoms: _469  and  _471
REMARK  195  A    between atoms: _471  and  _472
REMARK  196  A    between atoms: _474  and  _476
REMARK  197  A    between atoms: _476  and  _477
REMARK  198  A    between atoms: _476  and  _479
REMARK  199  A    between atoms: _479  and  _480
REMARK  200  A    between atoms: _483  and  _485
REMARK  201  A    between atoms: _485  and  _486
REMARK  202  A    between atoms: _485  and  _488
REMARK  203  A    between atoms: _488  and  _489
REMARK  204  A    between atoms: _494  and  _496
REMARK  205  A    between atoms: _496  and  _497
REMARK  206  A    between atoms: _496  and  _499
REMARK  207  A    between atoms: _499  and  _500
REMARK  208  A    between atoms: _503  and  _505
REMARK  209  A    between atoms: _505  and  _506
REMARK  210  A    between atoms: _505  and  _508
REMARK  211  A    between atoms: _508  and  _509
REMARK  212  A    between atoms: _515  and  _517
REMARK  213  A    between atoms: _517  and  _518
REMARK  214  A    between atoms: _517  and  _520
REMARK  215  A    between atoms: _520  and  _521
REMARK  216  A    between atoms: _526  and  _528
REMARK  217  A    between atoms: _528  and  _529
REMARK  218  A    between atoms: _528  and  _531
REMARK  219  A    between atoms: _531  and  _532
REMARK  220  A    between atoms: _532  and  _533
REMARK  221  A    between atoms: _533  and  _534
REMARK  222  A    between atoms: _543  and  _545
REMARK  223  A    between atoms: _545  and  _546
REMARK  224  A    between atoms: _545  and  _548
REMARK  225  A    between atoms: _548  and  _549
REMARK  226  A    between atoms: _554  and  _556
REMARK  227  A    between atoms: _556  and  _557
REMARK  228  A    between atoms: _556  and  _559
REMARK  229  A    between atoms: _561  and  _563
REMARK  230  A    between atoms: _563  and  _564
REMARK  231  A    between atoms: _563  and  _566
REMARK  232  A    between atoms: _566  and  _567
REMARK  233  A    between atoms: _567  and  _568
REMARK  234  A    between atoms: _570  and  _572
REMARK  235  A    between atoms: _572  and  _573
REMARK  236  A    between atoms: _572  and  _575
REMARK  237  A    between atoms: _575  and  _576
REMARK  238  A    between atoms: _579  and  _581
REMARK  239  A    between atoms: _581  and  _582
REMARK  240  A    between atoms: _581  and  _584
REMARK  241  A    between atoms: _584  and  _585
REMARK  242  A    between atoms: _585  and  _586
REMARK  243  A    between atoms: _586  and  _587
REMARK  244  A    between atoms: _587  and  _588
REMARK  245  A    between atoms: _592  and  _594
REMARK  246  A    between atoms: _594  and  _595
REMARK  247  A    between atoms: _594  and  _597
REMARK  248  A    between atoms: _600  and  _602
REMARK  249  A    between atoms: _602  and  _603
REMARK  250  A    between atoms: _606  and  _608
REMARK  251  A    between atoms: _608  and  _609
REMARK  252  A    between atoms: _608  and  _611
REMARK  253  A    between atoms: _611  and  _612
REMARK  254  A    between atoms: _615  and  _617
REMARK  255  A    between atoms: _617  and  _618
REMARK  256  A    between atoms: _617  and  _620
REMARK  257  A    between atoms: _620  and  _621
REMARK  258  A    between atoms: _627  and  _629
REMARK  259  A    between atoms: _629  and  _630
REMARK                            x       y       z     vdW  Elec       q    Type
REMARK                         _______ _______ _______ _____ _____    ______ ____
ROOT
ATOM      1  C   LEU A   2      28.194  -2.096 -19.124  0.00  0.00    +0.241 C 
ATOM      2  O   LEU A   2      28.273  -2.462 -17.956  0.00  0.00    -0.273 OA
ATOM      3  N   SER A   3      29.168  -1.445 -19.754  0.00  0.00    -0.295 N 
ATOM      4  H   SER A   3      29.048  -1.224 -20.763  0.00  0.00    +0.150 HD
ENDROOT
BRANCH   1   5
ATOM      5  CA  LEU A   2      26.945  -2.407 -19.945  0.00  0.00    +0.149 C 
BRANCH   5   7
ATOM      6  C   VAL A   1      27.342  -4.817 -20.016  0.00  0.00    +0.238 C 
ATOM      7  N   LEU A   2      26.525  -3.796 -19.759  0.00  0.00    -0.297 N 
ATOM      8  H   LEU A   2      25.563  -3.992 -19.417  0.00  0.00    +0.150 HD
ATOM      9  O   VAL A   1      28.477  -4.668 -20.459  0.00  0.00    -0.274 OA
BRANCH   6  10
ATOM     10  CA  VAL A   1      26.790  -6.222 -19.798  0.00  0.00    +0.145 C 
BRANCH  10  11
ATOM     11  CB  VAL A   1      27.491  -6.921 -18.597  0.00  0.00    +0.025 C 
ATOM     12  CG2 VAL A   1      27.295  -6.139 -17.303  0.00  0.00    +0.002 C 
ATOM     13  CG1 VAL A   1      26.987  -8.360 -18.430  0.00  0.00    +0.002 C 
ENDBRANCH  10  11
BRANCH  10  14
ATOM     14  N   VAL A   1      27.029  -6.934 -21.051  0.00  0.00    -0.238 NA
ATOM     15  H   VAL A   1      27.989  -6.929 -21.452  0.00  0.00    +0.142 HD
ENDBRANCH  10  14
ENDBRANCH   6  10
ENDBRANCH   5   7
BRANCH   5  16
ATOM     16  CB  LEU A   2      25.814  -1.444 -19.567  0.00  0.00    +0.029 C 
BRANCH  16  17
ATOM     17  CG  LEU A   2      25.999   0.032 -19.951  0.00  0.00    +0.002 C 
ATOM     18  CD2 LEU A   2      24.935   0.866 -19.285  0.00  0.00    +0.000 C 
ATOM     19  CD1 LEU A   2      25.967   0.228 -21.458  0.00  0.00    +0.000 C 
ENDBRANCH  16  17
ENDBRANCH   5  16
ENDBRANCH   1   5
BRANCH   3  20
ATOM     20  CA  SER A   3      30.402  -1.027 -19.085  0.00  0.00    +0.178 C 
BRANCH  20  21
ATOM     21  C   SER A   3      30.183   0.195 -18.218  0.00  0.00    +0.243 C 
ATOM     22  N   LEU A   4      30.895   0.235 -17.099  0.00  0.00    -0.298 N 
ATOM     23  H   LEU A   4      31.355  -0.636 -16.765  0.00  0.00    +0.150 HD
ATOM     24  O   SER A   3      29.385   1.074 -18.552  0.00  0.00    -0.273 OA
BRANCH  22  25
ATOM     25  CA  LEU A   4      31.054   1.453 -16.326  0.00  0.00    +0.137 C 
BRANCH  25  26
ATOM     26  C   LEU A   4      32.409   2.054 -16.688  0.00  0.00    +0.227 C 
ATOM     27  O   LEU A   4      33.454   1.471 -16.398  0.00  0.00    -0.286 OA
ENDBRANCH  25  26
BRANCH  25  28
ATOM     28  CB  LEU A   4      30.983   1.150 -14.830  0.00  0.00    +0.028 C 
BRANCH  28  29
ATOM     29  CG  LEU A   4      31.254   2.307 -13.868  0.00  0.00    +0.002 C 
ATOM     30  CD2 LEU A   4      31.354   1.777 -12.447  0.00  0.00    +0.000 C 
ATOM     31  CD1 LEU A   4      30.160   3.363 -13.971  0.00  0.00    +0.000 C 
ENDBRANCH  28  29
ENDBRANCH  25  28
ENDBRANCH  22  25
ENDBRANCH  20  21
BRANCH  20  32
ATOM     32  CB  SER A   3      31.485  -0.686 -20.105  0.00  0.00    +0.166 C 
BRANCH  32  33
ATOM     33  OG  SER A   3      32.086  -1.846 -20.618  0.00  0.00    -0.380 OA
ATOM     34  H   SER A   3      32.500  -2.357 -19.878  0.00  0.00    +0.211 HD
ENDBRANCH  32  33
ENDBRANCH  20  32
ENDBRANCH   3  20
TORSDOF 15
REMARK  Name = ../refined-set-2016/3u6h/3u6h_pocket.pdb
REMARK  259 active torsions:
REMARK  status: ('A' for Active; 'I' for Inactive)
REMARK    1  A    between atoms: _1  and  _3
REMARK    2  A    between atoms: _3  and  _4
REMARK    3  A    between atoms: _3  and  _6
REMARK    4  A    between atoms: _9  and  _11
REMARK    5  A    between atoms: _11  and  _12
REMARK    6  A    between atoms: _11  and  _14
REMARK    7  A    between atoms: _17  and  _19
REMARK    8  A    between atoms: _19  and  _20
REMARK    9  A    between atoms: _19  and  _22
REMARK   10  A    between atoms: _22  and  _23
REMARK   11  A    between atoms: _26  and  _28
REMARK   12  A    between atoms: _28  and  _29
REMARK   13  A    between atoms: _31  and  _33
REMARK   14  A    between atoms: _33  and  _34
REMARK   15  A    between atoms: _33  and  _36
REMARK   16  A    between atoms: _36  and  _37
REMARK   17  A    between atoms: _37  and  _38
REMARK   18  A    between atoms: _38  and  _39
REMARK   19  A    between atoms: _48  and  _50
REMARK   20  A    between atoms: _50  and  _51
REMARK   21  A    between atoms: _53  and  _55
REMARK   22  A    between atoms: _55  and  _56
REMARK   23  A    between atoms: _55  and  _58
REMARK   24  A    between atoms: _58  and  _59
REMARK   25  A    between atoms: _64  and  _66
REMARK   26  A    between atoms: _66  and  _67
REMARK   27  A    between atoms: _66  and  _69
REMARK   28  A    between atoms: _69  and  _70
REMARK   29  A    between atoms: _76  and  _78
REMARK   30  A    between atoms: _78  and  _79
REMARK   31  A    between atoms: _81  and  _83
REMARK   32  A    between atoms: _83  and  _84
REMARK   33  A    between atoms: _83  and  _86
REMARK   34  A    between atoms: _88  and  _90
REMARK   35  A    between atoms: _90  and  _91
REMARK   36  A    between atoms: _90  and  _93
REMARK   37  A    between atoms: _96  and  _98
REMARK   38  A    between atoms: _98  and  _99
REMARK   39  A    between atoms: _98  and  _101
REMARK   40  A    between atoms: _101  and  _102
REMARK   41  A    between atoms: _107  and  _108
REMARK   42  A    between atoms: _110  and  _112
REMARK   43  A    between atoms: _112  and  _113
REMARK   44  A    between atoms: _112  and  _115
REMARK   45  A    between atoms: _115  and  _116
REMARK   46  A    between atoms: _121  and  _123
REMARK   47  A    between atoms: _123  and  _124
REMARK   48  A    between atoms: _123  and  _126
REMARK   49  A    between atoms: _126  and  _127
REMARK   50  A    between atoms: _132  and  _134
REMARK   51  A    between atoms: _134  and  _135
REMARK   52  A    between atoms: _134  and  _137
REMARK   53  A    between atoms: _139  and  _141
REMARK   54  A    between atoms: _141  and  _142
REMARK   55  A    between atoms: _145  and  _147
REMARK   56  A    between atoms: _147  and  _148
REMARK   57  A    between atoms: _147  and  _150
REMARK   58  A    between atoms: _153  and  _155
REMARK   59  A    between atoms: _155  and  _156
REMARK   60  A    between atoms: _155  and  _158
REMARK   61  A    between atoms: _158  and  _159
REMARK   62  A    between atoms: _159  and  _160
REMARK   63  A    between atoms: _160  and  _161
REMARK   64  A    between atoms: _161  and  _162
REMARK   65  A    between atoms: _166  and  _168
REMARK   66  A    between atoms: _168  and  _169
REMARK   67  A    between atoms: _168  and  _171
REMARK   68  A    between atoms: _171  and  _172
REMARK   69  A    between atoms: _174  and  _176
REMARK   70  A    between atoms: _176  and  _177
REMARK   71  A    between atoms: _176  and  _179
REMARK   72  A    between atoms: _179  and  _180
REMARK   73  A    between atoms: _183  and  _185
REMARK   74  A    between atoms: _185  and  _186
REMARK   75  A    between atoms: _185  and  _188
REMARK   76  A    between atoms: _188  and  _189
REMARK   77  A    between atoms: _192  and  _194
REMARK   78  A    between atoms: _194  and  _195
REMARK   79  A    between atoms: _194  and  _197
REMARK   80  A    between atoms: _197  and  _198
REMARK   81  A    between atoms: _198  and  _199
REMARK   82  A    between atoms: _202  and  _204
REMARK   83  A    between atoms: _204  and  _205
REMARK   84  A    between atoms: _204  and  _207
REMARK   85  A    between atoms: _210  and  _212
REMARK   86  A    between atoms: _212  and  _213
REMARK   87  A    between atoms: _212  and  _215
REMARK   88  A    between atoms: _215  and  _216
REMARK   89  A    between atoms: _216  and  _217
REMARK   90  A    between atoms: _222  and  _224
REMARK   91  A    between atoms: _224  and  _225
REMARK   92  A    between atoms: _224  and  _227
REMARK   93  A    between atoms: _227  and  _228
REMARK   94  A    between atoms: _234  and  _236
REMARK   95  A    between atoms: _236  and  _237
REMARK   96  A    between atoms: _236  and  _239
REMARK   97  A    between atoms: _239  and  _240
REMARK   98  A    between atoms: _243  and  _245
REMARK   99  A    between atoms: _245  and  _246
REMARK  100  A    between atoms: _245  and  _248
REMARK  101  A    between atoms: _248  and  _249
REMARK  102  A    between atoms: _252  and  _254
REMARK  103  A    between atoms: _254  and  _255
REMARK  104  A    between atoms: _254  and  _257
REMARK  105  A    between atoms: _257  and  _258
REMARK  106  A    between atoms: _258  and  _259
REMARK  107  A    between atoms: _262  and  _264
REMARK  108  A    between atoms: _264  and  _265
REMARK  109  A    between atoms: _267  and  _269
REMARK  110  A    between atoms: _269  and  _270
REMARK  111  A    between atoms: _269  and  _272
REMARK  112  A    between atoms: _272  and  _273
REMARK  113  A    between atoms: _276  and  _278
REMARK  114  A    between atoms: _278  and  _279
REMARK  115  A    between atoms: _278  and  _281
REMARK  116  A    between atoms: _281  and  _282
REMARK  117  A    between atoms: _285  and  _287
REMARK  118  A    between atoms: _287  and  _288
REMARK  119  A    between atoms: _287  and  _290
REMARK  120  A    between atoms: _290  and  _291
REMARK  121  A    between atoms: _291  and  _292
REMARK  122  A    between atoms: _294  and  _296
REMARK  123  A    between atoms: _296  and  _297
REMARK  124  A    between atoms: _296  and  _299
REMARK  125  A    between atoms: _299  and  _300
REMARK  126  A    between atoms: _300  and  _301
REMARK  127  A    between atoms: _301  and  _302
REMARK  128  A    between atoms: _302  and  _303
REMARK  129  A    between atoms: _307  and  _309
REMARK  130  A    between atoms: _309  and  _310
REMARK  131  A    between atoms: _309  and  _312
REMARK  132  A    between atoms: _312  and  _313
REMARK  133  A    between atoms: _319  and  _321
REMARK  134  A    between atoms: _321  and  _322
REMARK  135  A    between atoms: _321  and  _324
REMARK  136  A    between atoms: _327  and  _329
REMARK  137  A    between atoms: _329  and  _330
REMARK  138  A    between atoms: _329  and  _332
REMARK  139  A    between atoms: _332  and  _333
REMARK  140  A    between atoms: _336  and  _338
REMARK  141  A    between atoms: _338  and  _339
REMARK  142  A    between atoms: _338  and  _341
REMARK  143  A    between atoms: _341  and  _342
REMARK  144  A    between atoms: _344  and  _346
REMARK  145  A    between atoms: _346  and  _347
REMARK  146  A    between atoms: _346  and  _349
REMARK  147  A    between atoms: _349  and  _350
REMARK  148  A    between atoms: _353  and  _355
REMARK  149  A    between atoms: _355  and  _356
REMARK  150  A    between atoms: _358  and  _360
REMARK  151  A    between atoms: _360  and  _361
REMARK  152  A    between atoms: _360  and  _363
REMARK  153  A    between atoms: _363  and  _364
REMARK  154  A    between atoms: _367  and  _369
REMARK  155  A    between atoms: _369  and  _370
REMARK  156  A    between atoms: _369  and  _372
REMARK  157  A    between atoms: _375  and  _376
REMARK  158  A    between atoms: _381  and  _383
REMARK  159  A    between atoms: _383  and  _384
REMARK  160  A    between atoms: _383  and  _386
REMARK  161  A    between atoms: _386  and  _387
REMARK  162  A    between atoms: _390  and  _392
REMARK  163  A    between atoms: _392  and  _393
REMARK  164  A    between atoms: _392  and  _395
REMARK  165  A    between atoms: _398  and  _400
REMARK  166  A    between atoms: _400  and  _401
REMARK  167  A    between atoms: _400  and  _403
REMARK  168  A    between atoms: _406  and  _408
REMARK  169  A    between atoms: _408  and  _409
REMARK  170  A    between atoms: _408  and  _411
REMARK  171  A    between atoms: _411  and  _412
REMARK  172  A    between atoms: _416  and  _417
REMARK  173  A    between atoms: _422  and  _424
REMARK  174  A    between atoms: _424  and  _425
REMARK  175  A    between atoms: _424  and  _427
REMARK  176  A    between atoms: _427  and  _428
REMARK  177  A    between atoms: _433  and  _434
REMARK  178  A    between atoms: _436  and  _438
REMARK  179  A    between atoms: _438  and  _439
REMARK  180  A    between atoms: _438  and  _441
REMARK  181  A    between atoms: _441  and  _442
REMARK  182  A    between atoms: _442  and  _443
REMARK  183  A    between atoms: _445  and  _447
REMARK  184  A    between atoms: _447  and  _448
REMARK  185  A    between atoms: _447  and  _450
REMARK  186  A    between atoms: _450  and  _451
REMARK  187  A    between atoms: _451  and  _452
REMARK  188  A    between atoms: _452  and  _453
REMARK  189  A    between atoms: _453  and  _454
REMARK  190  A    between atoms: _458  and  _460
REMARK  191  A    between atoms: _460  and  _461
REMARK  192  A    between atoms: _460  and  _463
REMARK  193  A    between atoms: _463  and  _464
REMARK  194  A    between atoms: _469  and  _471
REMARK  195  A    between atoms: _471  and  _472
REMARK  196  A    between atoms: _474  and  _476
REMARK  197  A    between atoms: _476  and  _477
REMARK  198  A    between atoms: _476  and  _479
REMARK  199  A    between atoms: _479  and  _480
REMARK  200  A    between atoms: _483  and  _485
REMARK  201  A    between atoms: _485  and  _486
REMARK  202  A    between atoms: _485  and  _488
REMARK  203  A    between atoms: _488  and  _489
REMARK  204  A    between atoms: _494  and  _496
REMARK  205  A    between atoms: _496  and  _497
REMARK  206  A    between atoms: _496  and  _499
REMARK  207  A    between atoms: _499  and  _500
REMARK  208  A    between atoms: _503  and  _505
REMARK  209  A    between atoms: _505  and  _506
REMARK  210  A    between atoms: _505  and  _508
REMARK  211  A    between atoms: _508  and  _509
REMARK  212  A    between atoms: _515  and  _517
REMARK  213  A    between atoms: _517  and  _518
REMARK  214  A    between atoms: _517  and  _520
REMARK  215  A    between atoms: _520  and  _521
REMARK  216  A    between atoms: _526  and  _528
REMARK  217  A    between atoms: _528  and  _529
REMARK  218  A    between atoms: _528  and  _531
REMARK  219  A    between atoms: _531  and  _532
REMARK  220  A    between atoms: _532  and  _533
REMARK  221  A    between atoms: _533  and  _534
REMARK  222  A    between atoms: _543  and  _545
REMARK  223  A    between atoms: _545  and  _546
REMARK  224  A    between atoms: _545  and  _548
REMARK  225  A    between atoms: _548  and  _549
REMARK  226  A    between atoms: _554  and  _556
REMARK  227  A    between atoms: _556  and  _557
REMARK  228  A    between atoms: _556  and  _559
REMARK  229  A    between atoms: _561  and  _563
REMARK  230  A    between atoms: _563  and  _564
REMARK  231  A    between atoms: _563  and  _566
REMARK  232  A    between atoms: _566  and  _567
REMARK  233  A    between atoms: _567  and  _568
REMARK  234  A    between atoms: _570  and  _572
REMARK  235  A    between atoms: _572  and  _573
REMARK  236  A    between atoms: _572  and  _575
REMARK  237  A    between atoms: _575  and  _576
REMARK  238  A    between atoms: _579  and  _581
REMARK  239  A    between atoms: _581  and  _582
REMARK  240  A    between atoms: _581  and  _584
REMARK  241  A    between atoms: _584  and  _585
REMARK  242  A    between atoms: _585  and  _586
REMARK  243  A    between atoms: _586  and  _587
REMARK  244  A    between atoms: _587  and  _588
REMARK  245  A    between atoms: _592  and  _594
REMARK  246  A    between atoms: _594  and  _595
REMARK  247  A    between atoms: _594  and  _597
REMARK  248  A    between atoms: _600  and  _602
REMARK  249  A    between atoms: _602  and  _603
REMARK  250  A    between atoms: _606  and  _608
REMARK  251  A    between atoms: _608  and  _609
REMARK  252  A    between atoms: _608  and  _611
REMARK  253  A    between atoms: _611  and  _612
REMARK  254  A    between atoms: _615  and  _617
REMARK  255  A    between atoms: _617  and  _618
REMARK  256  A    between atoms: _617  and  _620
REMARK  257  A    between atoms: _620  and  _621
REMARK  258  A    between atoms: _627  and  _629
REMARK  259  A    between atoms: _629  and  _630
REMARK                            x       y       z     vdW  Elec       q    Type
REMARK                         _______ _______ _______ _____ _____    ______ ____
ROOT
ATOM      1  CA  ILE A   2      32.304   7.741 -11.727  0.00  0.00    +0.148 C 
ENDROOT
BRANCH   1   3
ATOM      2  C   GLY A   1      32.844   6.328 -13.639  0.00  0.00    +0.240 C 
ATOM      3  N   ILE A   2      33.214   6.926 -12.515  0.00  0.00    -0.297 N 
ATOM      4  H   ILE A   2      34.193   6.807 -12.184  0.00  0.00    +0.150 HD
ATOM      5  O   GLY A   1      31.688   6.331 -14.067  0.00  0.00    -0.274 OA
BRANCH   2   6
ATOM      6  CA  GLY A   1      33.940   5.613 -14.378  0.00  0.00    +0.169 C 
BRANCH   6   7
ATOM      7  N   GLY A   1      33.451   5.028 -15.610  0.00  0.00    -0.236 NA
ATOM      8  H   GLY A   1      32.426   4.974 -15.776  0.00  0.00    +0.142 HD
ENDBRANCH   6   7
ENDBRANCH   2   6
ENDBRANCH   1   3
BRANCH   1   9
ATOM      9  C   ILE A   2      32.989   9.053 -11.363  0.00  0.00    +0.241 C 
ATOM     10  N   CYS A   3      32.190  10.079 -11.088  0.00  0.00    -0.297 N 
ATOM     11  H   CYS A   3      31.162   9.969 -11.197  0.00  0.00    +0.150 HD
ATOM     12  O   ILE A   2      34.221   9.133 -11.336  0.00  0.00    -0.273 OA
BRANCH  10  13
ATOM     13  CA  CYS A   3      32.731  11.356 -10.636  0.00  0.00    +0.149 C 
BRANCH  13  14
ATOM     14  C   CYS A   3      32.233  11.699  -9.241  0.00  0.00    +0.228 C 
ATOM     15  O   CYS A   3      31.029  11.754  -8.995  0.00  0.00    -0.286 OA
ENDBRANCH  13  14
BRANCH  13  16
ATOM     16  CB  CYS A   3      32.401  12.488 -11.617  0.00  0.00    +0.096 C 
ATOM     17  SG  CYS A   3      32.725  12.104 -13.354  0.00  0.00    -0.080 S 
ENDBRANCH  13  16
ENDBRANCH  10  13
ENDBRANCH   1   9
BRANCH   1  18
ATOM     18  CB  ILE A   2      31.800   7.009 -10.433  0.00  0.00    +0.027 C 
ATOM     19  CG2 ILE A   2      30.915   5.793 -10.792  0.00  0.00    +0.002 C 
BRANCH  18  20
ATOM     20  CG1 ILE A   2      32.965   6.627  -9.512  0.00  0.00    +0.002 C 
ATOM     21  CD1 ILE A   2      32.533   6.129  -8.132  0.00  0.00    +0.000 C 
ENDBRANCH  18  20
ENDBRANCH   1  18
TORSDOF 9
REMARK  Name = ../refined-set-2016/3u6h/3u6h_pocket.pdb
REMARK  259 active torsions:
REMARK  status: ('A' for Active; 'I' for Inactive)
REMARK    1  A    between atoms: _1  and  _3
REMARK    2  A    between atoms: _3  and  _4
REMARK    3  A    between atoms: _3  and  _6
REMARK    4  A    between atoms: _9  and  _11
REMARK    5  A    between atoms: _11  and  _12
REMARK    6  A    between atoms: _11  and  _14
REMARK    7  A    between atoms: _17  and  _19
REMARK    8  A    between atoms: _19  and  _20
REMARK    9  A    between atoms: _19  and  _22
REMARK   10  A    between atoms: _22  and  _23
REMARK   11  A    between atoms: _26  and  _28
REMARK   12  A    between atoms: _28  and  _29
REMARK   13  A    between atoms: _31  and  _33
REMARK   14  A    between atoms: _33  and  _34
REMARK   15  A    between atoms: _33  and  _36
REMARK   16  A    between atoms: _36  and  _37
REMARK   17  A    between atoms: _37  and  _38
REMARK   18  A    between atoms: _38  and  _39
REMARK   19  A    between atoms: _48  and  _50
REMARK   20  A    between atoms: _50  and  _51
REMARK   21  A    between atoms: _53  and  _55
REMARK   22  A    between atoms: _55  and  _56
REMARK   23  A    between atoms: _55  and  _58
REMARK   24  A    between atoms: _58  and  _59
REMARK   25  A    between atoms: _64  and  _66
REMARK   26  A    between atoms: _66  and  _67
REMARK   27  A    between atoms: _66  and  _69
REMARK   28  A    between atoms: _69  and  _70
REMARK   29  A    between atoms: _76  and  _78
REMARK   30  A    between atoms: _78  and  _79
REMARK   31  A    between atoms: _81  and  _83
REMARK   32  A    between atoms: _83  and  _84
REMARK   33  A    between atoms: _83  and  _86
REMARK   34  A    between atoms: _88  and  _90
REMARK   35  A    between atoms: _90  and  _91
REMARK   36  A    between atoms: _90  and  _93
REMARK   37  A    between atoms: _96  and  _98
REMARK   38  A    between atoms: _98  and  _99
REMARK   39  A    between atoms: _98  and  _101
REMARK   40  A    between atoms: _101  and  _102
REMARK   41  A    between atoms: _107  and  _108
REMARK   42  A    between atoms: _110  and  _112
REMARK   43  A    between atoms: _112  and  _113
REMARK   44  A    between atoms: _112  and  _115
REMARK   45  A    between atoms: _115  and  _116
REMARK   46  A    between atoms: _121  and  _123
REMARK   47  A    between atoms: _123  and  _124
REMARK   48  A    between atoms: _123  and  _126
REMARK   49  A    between atoms: _126  and  _127
REMARK   50  A    between atoms: _132  and  _134
REMARK   51  A    between atoms: _134  and  _135
REMARK   52  A    between atoms: _134  and  _137
REMARK   53  A    between atoms: _139  and  _141
REMARK   54  A    between atoms: _141  and  _142
REMARK   55  A    between atoms: _145  and  _147
REMARK   56  A    between atoms: _147  and  _148
REMARK   57  A    between atoms: _147  and  _150
REMARK   58  A    between atoms: _153  and  _155
REMARK   59  A    between atoms: _155  and  _156
REMARK   60  A    between atoms: _155  and  _158
REMARK   61  A    between atoms: _158  and  _159
REMARK   62  A    between atoms: _159  and  _160
REMARK   63  A    between atoms: _160  and  _161
REMARK   64  A    between atoms: _161  and  _162
REMARK   65  A    between atoms: _166  and  _168
REMARK   66  A    between atoms: _168  and  _169
REMARK   67  A    between atoms: _168  and  _171
REMARK   68  A    between atoms: _171  and  _172
REMARK   69  A    between atoms: _174  and  _176
REMARK   70  A    between atoms: _176  and  _177
REMARK   71  A    between atoms: _176  and  _179
REMARK   72  A    between atoms: _179  and  _180
REMARK   73  A    between atoms: _183  and  _185
REMARK   74  A    between atoms: _185  and  _186
REMARK   75  A    between atoms: _185  and  _188
REMARK   76  A    between atoms: _188  and  _189
REMARK   77  A    between atoms: _192  and  _194
REMARK   78  A    between atoms: _194  and  _195
REMARK   79  A    between atoms: _194  and  _197
REMARK   80  A    between atoms: _197  and  _198
REMARK   81  A    between atoms: _198  and  _199
REMARK   82  A    between atoms: _202  and  _204
REMARK   83  A    between atoms: _204  and  _205
REMARK   84  A    between atoms: _204  and  _207
REMARK   85  A    between atoms: _210  and  _212
REMARK   86  A    between atoms: _212  and  _213
REMARK   87  A    between atoms: _212  and  _215
REMARK   88  A    between atoms: _215  and  _216
REMARK   89  A    between atoms: _216  and  _217
REMARK   90  A    between atoms: _222  and  _224
REMARK   91  A    between atoms: _224  and  _225
REMARK   92  A    between atoms: _224  and  _227
REMARK   93  A    between atoms: _227  and  _228
REMARK   94  A    between atoms: _234  and  _236
REMARK   95  A    between atoms: _236  and  _237
REMARK   96  A    between atoms: _236  and  _239
REMARK   97  A    between atoms: _239  and  _240
REMARK   98  A    between atoms: _243  and  _245
REMARK   99  A    between atoms: _245  and  _246
REMARK  100  A    between atoms: _245  and  _248
REMARK  101  A    between atoms: _248  and  _249
REMARK  102  A    between atoms: _252  and  _254
REMARK  103  A    between atoms: _254  and  _255
REMARK  104  A    between atoms: _254  and  _257
REMARK  105  A    between atoms: _257  and  _258
REMARK  106  A    between atoms: _258  and  _259
REMARK  107  A    between atoms: _262  and  _264
REMARK  108  A    between atoms: _264  and  _265
REMARK  109  A    between atoms: _267  and  _269
REMARK  110  A    between atoms: _269  and  _270
REMARK  111  A    between atoms: _269  and  _272
REMARK  112  A    between atoms: _272  and  _273
REMARK  113  A    between atoms: _276  and  _278
REMARK  114  A    between atoms: _278  and  _279
REMARK  115  A    between atoms: _278  and  _281
REMARK  116  A    between atoms: _281  and  _282
REMARK  117  A    between atoms: _285  and  _287
REMARK  118  A    between atoms: _287  and  _288
REMARK  119  A    between atoms: _287  and  _290
REMARK  120  A    between atoms: _290  and  _291
REMARK  121  A    between atoms: _291  and  _292
REMARK  122  A    between atoms: _294  and  _296
REMARK  123  A    between atoms: _296  and  _297
REMARK  124  A    between atoms: _296  and  _299
REMARK  125  A    between atoms: _299  and  _300
REMARK  126  A    between atoms: _300  and  _301
REMARK  127  A    between atoms: _301  and  _302
REMARK  128  A    between atoms: _302  and  _303
REMARK  129  A    between atoms: _307  and  _309
REMARK  130  A    between atoms: _309  and  _310
REMARK  131  A    between atoms: _309  and  _312
REMARK  132  A    between atoms: _312  and  _313
REMARK  133  A    between atoms: _319  and  _321
REMARK  134  A    between atoms: _321  and  _322
REMARK  135  A    between atoms: _321  and  _324
REMARK  136  A    between atoms: _327  and  _329
REMARK  137  A    between atoms: _329  and  _330
REMARK  138  A    between atoms: _329  and  _332
REMARK  139  A    between atoms: _332  and  _333
REMARK  140  A    between atoms: _336  and  _338
REMARK  141  A    between atoms: _338  and  _339
REMARK  142  A    between atoms: _338  and  _341
REMARK  143  A    between atoms: _341  and  _342
REMARK  144  A    between atoms: _344  and  _346
REMARK  145  A    between atoms: _346  and  _347
REMARK  146  A    between atoms: _346  and  _349
REMARK  147  A    between atoms: _349  and  _350
REMARK  148  A    between atoms: _353  and  _355
REMARK  149  A    between atoms: _355  and  _356
REMARK  150  A    between atoms: _358  and  _360
REMARK  151  A    between atoms: _360  and  _361
REMARK  152  A    between atoms: _360  and  _363
REMARK  153  A    between atoms: _363  and  _364
REMARK  154  A    between atoms: _367  and  _369
REMARK  155  A    between atoms: _369  and  _370
REMARK  156  A    between atoms: _369  and  _372
REMARK  157  A    between atoms: _375  and  _376
REMARK  158  A    between atoms: _381  and  _383
REMARK  159  A    between atoms: _383  and  _384
REMARK  160  A    between atoms: _383  and  _386
REMARK  161  A    between atoms: _386  and  _387
REMARK  162  A    between atoms: _390  and  _392
REMARK  163  A    between atoms: _392  and  _393
REMARK  164  A    between atoms: _392  and  _395
REMARK  165  A    between atoms: _398  and  _400
REMARK  166  A    between atoms: _400  and  _401
REMARK  167  A    between atoms: _400  and  _403
REMARK  168  A    between atoms: _406  and  _408
REMARK  169  A    between atoms: _408  and  _409
REMARK  170  A    between atoms: _408  and  _411
REMARK  171  A    between atoms: _411  and  _412
REMARK  172  A    between atoms: _416  and  _417
REMARK  173  A    between atoms: _422  and  _424
REMARK  174  A    between atoms: _424  and  _425
REMARK  175  A    between atoms: _424  and  _427
REMARK  176  A    between atoms: _427  and  _428
REMARK  177  A    between atoms: _433  and  _434
REMARK  178  A    between atoms: _436  and  _438
REMARK  179  A    between atoms: _438  and  _439
REMARK  180  A    between atoms: _438  and  _441
REMARK  181  A    between atoms: _441  and  _442
REMARK  182  A    between atoms: _442  and  _443
REMARK  183  A    between atoms: _445  and  _447
REMARK  184  A    between atoms: _447  and  _448
REMARK  185  A    between atoms: _447  and  _450
REMARK  186  A    between atoms: _450  and  _451
REMARK  187  A    between atoms: _451  and  _452
REMARK  188  A    between atoms: _452  and  _453
REMARK  189  A    between atoms: _453  and  _454
REMARK  190  A    between atoms: _458  and  _460
REMARK  191  A    between atoms: _460  and  _461
REMARK  192  A    between atoms: _460  and  _463
REMARK  193  A    between atoms: _463  and  _464
REMARK  194  A    between atoms: _469  and  _471
REMARK  195  A    between atoms: _471  and  _472
REMARK  196  A    between atoms: _474  and  _476
REMARK  197  A    between atoms: _476  and  _477
REMARK  198  A    between atoms: _476  and  _479
REMARK  199  A    between atoms: _479  and  _480
REMARK  200  A    between atoms: _483  and  _485
REMARK  201  A    between atoms: _485  and  _486
REMARK  202  A    between atoms: _485  and  _488
REMARK  203  A    between atoms: _488  and  _489
REMARK  204  A    between atoms: _494  and  _496
REMARK  205  A    between atoms: _496  and  _497
REMARK  206  A    between atoms: _496  and  _499
REMARK  207  A    between atoms: _499  and  _500
REMARK  208  A    between atoms: _503  and  _505
REMARK  209  A    between atoms: _505  and  _506
REMARK  210  A    between atoms: _505  and  _508
REMARK  211  A    between atoms: _508  and  _509
REMARK  212  A    between atoms: _515  and  _517
REMARK  213  A    between atoms: _517  and  _518
REMARK  214  A    between atoms: _517  and  _520
REMARK  215  A    between atoms: _520  and  _521
REMARK  216  A    between atoms: _526  and  _528
REMARK  217  A    between atoms: _528  and  _529
REMARK  218  A    between atoms: _528  and  _531
REMARK  219  A    between atoms: _531  and  _532
REMARK  220  A    between atoms: _532  and  _533
REMARK  221  A    between atoms: _533  and  _534
REMARK  222  A    between atoms: _543  and  _545
REMARK  223  A    between atoms: _545  and  _546
REMARK  224  A    between atoms: _545  and  _548
REMARK  225  A    between atoms: _548  and  _549
REMARK  226  A    between atoms: _554  and  _556
REMARK  227  A    between atoms: _556  and  _557
REMARK  228  A    between atoms: _556  and  _559
REMARK  229  A    between atoms: _561  and  _563
REMARK  230  A    between atoms: _563  and  _564
REMARK  231  A    between atoms: _563  and  _566
REMARK  232  A    between atoms: _566  and  _567
REMARK  233  A    between atoms: _567  and  _568
REMARK  234  A    between atoms: _570  and  _572
REMARK  235  A    between atoms: _572  and  _573
REMARK  236  A    between atoms: _572  and  _575
REMARK  237  A    between atoms: _575  and  _576
REMARK  238  A    between atoms: _579  and  _581
REMARK  239  A    between atoms: _581  and  _582
REMARK  240  A    between atoms: _581  and  _584
REMARK  241  A    between atoms: _584  and  _585
REMARK  242  A    between atoms: _585  and  _586
REMARK  243  A    between atoms: _586  and  _587
REMARK  244  A    between atoms: _587  and  _588
REMARK  245  A    between atoms: _592  and  _594
REMARK  246  A    between atoms: _594  and  _595
REMARK  247  A    between atoms: _594  and  _597
REMARK  248  A    between atoms: _600  and  _602
REMARK  249  A    between atoms: _602  and  _603
REMARK  250  A    between atoms: _606  and  _608
REMARK  251  A    between atoms: _608  and  _609
REMARK  252  A    between atoms: _608  and  _611
REMARK  253  A    between atoms: _611  and  _612
REMARK  254  A    between atoms: _615  and  _617
REMARK  255  A    between atoms: _617  and  _618
REMARK  256  A    between atoms: _617  and  _620
REMARK  257  A    between atoms: _620  and  _621
REMARK  258  A    between atoms: _627  and  _629
REMARK  259  A    between atoms: _629  and  _630
REMARK                            x       y       z     vdW  Elec       q    Type
REMARK                         _______ _______ _______ _____ _____    ______ ____
ROOT
ATOM      1  CA  TYR A   7      26.937   5.855 -25.417  0.00  0.00    +0.153 C 
ENDROOT
BRANCH   1   2
ATOM      2  C   TYR A   7      26.373   4.685 -26.212  0.00  0.00    +0.241 C 
ATOM      3  N   MET A   8      25.071   4.453 -26.081  0.00  0.00    -0.297 N 
ATOM      4  H   MET A   8      24.503   5.074 -25.469  0.00  0.00    +0.150 HD
ATOM      5  O   TYR A   7      27.109   3.997 -26.923  0.00  0.00    -0.273 OA
BRANCH   3   6
ATOM      6  CA  MET A   8      24.420   3.347 -26.776  0.00  0.00    +0.149 C 
BRANCH   6   7
ATOM      7  C   MET A   8      23.562   3.905 -27.911  0.00  0.00    +0.241 C 
ATOM      8  O   MET A   8      22.464   4.403 -27.674  0.00  0.00    -0.273 OA
ATOM      9  N   LYS A   9      24.063   3.816 -29.143  0.00  0.00    -0.297 N 
ATOM     10  H   LYS A   9      24.927   3.257 -29.293  0.00  0.00    +0.150 HD
BRANCH   9  11
ATOM     11  CA  LYS A   9      23.436   4.483 -30.303  0.00  0.00    +0.149 C 
BRANCH  11  12
ATOM     12  C   LYS A   9      21.938   4.246 -30.451  0.00  0.00    +0.241 C 
ATOM     13  N   HIS A  10      21.527   2.995 -30.270  0.00  0.00    -0.297 N 
ATOM     14  H   HIS A  10      22.209   2.280 -29.945  0.00  0.00    +0.150 HD
ATOM     15  O   LYS A   9      21.178   5.172 -30.738  0.00  0.00    -0.273 OA
BRANCH  13  16
ATOM     16  CA  HIS A  10      20.154   2.601 -30.513  0.00  0.00    +0.155 C 
BRANCH  16  17
ATOM     17  C   HIS A  10      19.327   2.526 -29.231  0.00  0.00    +0.241 C 
ATOM     18  N   GLY A  11      19.822   3.150 -28.163  0.00  0.00    -0.295 N 
ATOM     19  H   GLY A  11      20.774   3.565 -28.225  0.00  0.00    +0.150 HD
ATOM     20  O   HIS A  10      18.265   1.919 -29.216  0.00  0.00    -0.273 OA
BRANCH  18  21
ATOM     21  CA  GLY A  11      19.082   3.276 -26.904  0.00  0.00    +0.176 C 
BRANCH  21  22
ATOM     22  C   GLY A  11      18.711   1.949 -26.257  0.00  0.00    +0.243 C 
ATOM     23  N   ASP A  12      17.497   1.880 -25.718  0.00  0.00    -0.297 N 
ATOM     24  H   ASP A  12      16.881   2.717 -25.759  0.00  0.00    +0.150 HD
ATOM     25  O   GLY A  11      19.508   1.007 -26.249  0.00  0.00    -0.273 OA
BRANCH  23  26
ATOM     26  CA  ASP A  12      16.997   0.667 -25.069  0.00  0.00    +0.148 C 
BRANCH  26  27
ATOM     27  C   ASP A  12      16.247  -0.257 -26.032  0.00  0.00    +0.227 C 
ATOM     28  O   ASP A  12      15.705   0.189 -27.044  0.00  0.00    -0.286 OA
ENDBRANCH  26  27
BRANCH  26  29
ATOM     29  CB  ASP A  12      16.153   1.004 -23.827  0.00  0.00    +0.142 C 
BRANCH  29  30
ATOM     30  CG  ASP A  12      14.785   1.567 -24.164  0.00  0.00    +0.367 C 
ATOM     31  OD2 ASP A  12      14.596   2.792 -23.998  0.00  0.00    -0.246 OA
ATOM     32  OD1 ASP A  12      13.889   0.791 -24.572  0.00  0.00    -0.246 OA
ENDBRANCH  29  30
ENDBRANCH  26  29
ENDBRANCH  23  26
ENDBRANCH  21  22
ENDBRANCH  18  21
ENDBRANCH  16  17
BRANCH  16  33
ATOM     33  CB  HIS A  10      20.118   1.282 -31.293  0.00  0.00    +0.076 C 
BRANCH  33  34
ATOM     34  CG  HIS A  10      20.692   1.388 -32.672  0.00  0.00    +0.082 A 
ATOM     35  CD2 HIS A  10      21.860   0.942 -33.190  0.00  0.00    +0.115 A 
ATOM     36  NE2 HIS A  10      21.887   1.318 -34.512  0.00  0.00    -0.221 NA
ATOM     37  CE1 HIS A  10      20.777   1.973 -34.794  0.00  0.00    +0.199 A 
ATOM     38  ND1 HIS A  10      20.039   2.031 -33.701  0.00  0.00    -0.227 NA
ENDBRANCH  33  34
ENDBRANCH  16  33
ENDBRANCH  13  16
ENDBRANCH  11  12
BRANCH  11  39
ATOM     39  CB  LYS A   9      24.125   4.069 -31.608  0.00  0.00    +0.029 C 
BRANCH  39  40
ATOM     40  CG  LYS A   9      23.638   4.846 -32.842  0.00  0.00    +0.000 C 
BRANCH  40  41
ATOM     41  CD  LYS A   9      24.068   4.172 -34.131  0.00  0.00    -0.024 C 
BRANCH  41  42
ATOM     42  CE  LYS A   9      23.928   5.112 -35.330  0.00  0.00    -0.086 C 
BRANCH  42  43
ATOM     43  NZ  LYS A   9      24.555   4.522 -36.560  0.00  0.00    +0.380 N 
ATOM     44  HZ1 LYS A   9      25.567   4.355 -36.386  0.00  0.00    -0.089 HD
ATOM     45  HZ2 LYS A   9      24.088   3.621 -36.788  0.00  0.00    -0.089 HD
ATOM     46  HZ3 LYS A   9      24.444   5.183 -37.355  0.00  0.00    -0.089 HD
ENDBRANCH  42  43
ENDBRANCH  41  42
ENDBRANCH  40  41
ENDBRANCH  39  40
ENDBRANCH  11  39
ENDBRANCH   9  11
ENDBRANCH   6   7
BRANCH   6  47
ATOM     47  CB  MET A   8      23.583   2.517 -25.799  0.00  0.00    +0.041 C 
BRANCH  47  48
ATOM     48  CG  MET A   8      24.371   1.806 -24.697  0.00  0.00    +0.060 C 
BRANCH  48  49
ATOM     49  SD  MET A   8      25.273   0.350 -25.273  0.00  0.00    -0.139 S 
ATOM     50  CE  MET A   8      26.975   0.877 -25.074  0.00  0.00    +0.069 C 
ENDBRANCH  48  49
ENDBRANCH  47  48
ENDBRANCH   6  47
ENDBRANCH   3   6
ENDBRANCH   1   2
BRANCH   1  53
ATOM     51  C   PRO A   6      28.166   4.559 -23.739  0.00  0.00    +0.241 C 
ATOM     52  O   PRO A   6      27.148   4.016 -23.314  0.00  0.00    -0.273 OA
ATOM     53  N   TYR A   7      28.164   5.447 -24.730  0.00  0.00    -0.297 N 
ATOM     54  H   TYR A   7      29.068   5.867 -25.028  0.00  0.00    +0.150 HD
BRANCH  51  61
ATOM     55  C   LEU A   5      28.994   5.074 -20.890  0.00  0.00    +0.244 C 
ATOM     56  O   LEU A   5      28.887   6.211 -21.325  0.00  0.00    -0.273 OA
ATOM     57  N   PRO A   6      29.333   4.026 -21.671  0.00  0.00    -0.272 N 
ATOM     58  CD  PRO A   6      29.538   2.617 -21.295  0.00  0.00    +0.094 C 
ATOM     59  CG  PRO A   6      30.319   2.076 -22.425  0.00  0.00    +0.024 C 
ATOM     60  CB  PRO A   6      30.037   2.898 -23.615  0.00  0.00    +0.031 C 
ATOM     61  CA  PRO A   6      29.516   4.246 -23.102  0.00  0.00    +0.152 C 
BRANCH  55  62
ATOM     62  CA  LEU A   5      28.733   4.812 -19.418  0.00  0.00    +0.149 C 
BRANCH  62  65
ATOM     63  C   VAL A   4      29.821   6.109 -17.630  0.00  0.00    +0.241 C 
ATOM     64  O   VAL A   4      30.492   5.160 -17.241  0.00  0.00    -0.273 OA
ATOM     65  N   LEU A   5      28.983   6.039 -18.661  0.00  0.00    -0.297 N 
ATOM     66  H   LEU A   5      28.478   6.903 -18.944  0.00  0.00    +0.150 HD
BRANCH  63  67
ATOM     67  CA  VAL A   4      29.885   7.464 -16.922  0.00  0.00    +0.149 C 
BRANCH  67  69
ATOM     68  C   VAL A   3      28.350   7.906 -15.094  0.00  0.00    +0.241 C 
ATOM     69  N   VAL A   4      29.481   7.350 -15.521  0.00  0.00    -0.297 N 
ATOM     70  H   VAL A   4      30.083   6.829 -14.852  0.00  0.00    +0.150 HD
ATOM     71  O   VAL A   3      27.562   8.486 -15.850  0.00  0.00    -0.273 OA
BRANCH  68  72
ATOM     72  CA  VAL A   3      28.069   7.817 -13.599  0.00  0.00    +0.149 C 
BRANCH  72  75
ATOM     73  C   LEU A   2      28.464   9.767 -12.159  0.00  0.00    +0.241 C 
ATOM     74  O   LEU A   2      29.430   9.250 -11.600  0.00  0.00    -0.273 OA
ATOM     75  N   VAL A   3      27.747   9.152 -13.103  0.00  0.00    -0.297 N 
ATOM     76  H   VAL A   3      26.923   9.646 -13.502  0.00  0.00    +0.150 HD
BRANCH  73  77
ATOM     77  CA  LEU A   2      28.034  11.187 -11.813  0.00  0.00    +0.149 C 
BRANCH  77  80
ATOM     78  C   PRO A   1      27.333  11.874  -9.570  0.00  0.00    +0.239 C 
ATOM     79  O   PRO A   1      26.143  11.920  -9.883  0.00  0.00    -0.274 OA
ATOM     80  N   LEU A   2      28.301  11.523 -10.413  0.00  0.00    -0.297 N 
ATOM     81  H   LEU A   2      29.281  11.486 -10.066  0.00  0.00    +0.150 HD
BRANCH  78  86
ATOM     82  N   PRO A   1      26.861  13.260  -7.591  0.00  0.00    -0.210 NA
ATOM     83  CD  PRO A   1      26.239  12.787  -6.336  0.00  0.00    +0.089 C 
ATOM     84  CG  PRO A   1      27.134  11.661  -5.930  0.00  0.00    +0.021 C 
ATOM     85  CB  PRO A   1      27.574  11.063  -7.210  0.00  0.00    +0.028 C 
ATOM     86  CA  PRO A   1      27.759  12.252  -8.152  0.00  0.00    +0.149 C 
ENDBRANCH  78  86
ENDBRANCH  77  80
BRANCH  77  87
ATOM     87  CB  LEU A   2      28.737  12.178 -12.771  0.00  0.00    +0.029 C 
BRANCH  87  88
ATOM     88  CG  LEU A   2      28.588  13.694 -12.596  0.00  0.00    +0.002 C 
ATOM     89  CD2 LEU A   2      27.145  14.131 -12.729  0.00  0.00    +0.000 C 
ATOM     90  CD1 LEU A   2      29.494  14.469 -13.575  0.00  0.00    +0.000 C 
ENDBRANCH  87  88
ENDBRANCH  77  87
ENDBRANCH  73  77
ENDBRANCH  72  75
BRANCH  72  91
ATOM     91  CB  VAL A   3      26.911   6.809 -13.321  0.00  0.00    +0.027 C 
ATOM     92  CG2 VAL A   3      26.671   6.680 -11.830  0.00  0.00    +0.002 C 
ATOM     93  CG1 VAL A   3      27.218   5.440 -13.900  0.00  0.00    +0.002 C 
ENDBRANCH  72  91
ENDBRANCH  68  72
ENDBRANCH  67  69
BRANCH  67  94
ATOM     94  CB  VAL A   4      31.277   8.132 -17.077  0.00  0.00    +0.027 C 
ATOM     95  CG2 VAL A   4      31.340   9.439 -16.284  0.00  0.00    +0.002 C 
ATOM     96  CG1 VAL A   4      31.586   8.386 -18.545  0.00  0.00    +0.002 C 
ENDBRANCH  67  94
ENDBRANCH  63  67
ENDBRANCH  62  65
BRANCH  62  97
ATOM     97  CB  LEU A   5      27.273   4.378 -19.215  0.00  0.00    +0.029 C 
BRANCH  97  98
ATOM     98  CG  LEU A   5      26.869   4.414 -17.738  0.00  0.00    +0.002 C 
ATOM     99  CD2 LEU A   5      26.941   3.068 -17.047  0.00  0.00    +0.000 C 
ATOM    100  CD1 LEU A   5      25.532   5.066 -17.576  0.00  0.00    +0.000 C 
ENDBRANCH  97  98
ENDBRANCH  62  97
ENDBRANCH  55  62
ENDBRANCH  51  61
ENDBRANCH   1  53
BRANCH   1 101
ATOM    101  CB  TYR A   7      27.231   7.026 -26.358  0.00  0.00    +0.055 C 
BRANCH 101 102
ATOM    102  CG  TYR A   7      26.008   7.573 -27.057  0.00  0.00    -0.020 A 
ATOM    103  CD2 TYR A   7      25.044   8.293 -26.349  0.00  0.00    -0.001 A 
ATOM    104  CE2 TYR A   7      23.921   8.802 -26.982  0.00  0.00    +0.036 A 
ATOM    105  CZ  TYR A   7      23.743   8.590 -28.335  0.00  0.00    +0.134 A 
ATOM    106  CE1 TYR A   7      24.678   7.879 -29.066  0.00  0.00    +0.036 A 
ATOM    107  CD1 TYR A   7      25.808   7.365 -28.422  0.00  0.00    -0.001 A 
BRANCH 105 108
ATOM    108  OH  TYR A   7      22.619   9.109 -28.951  0.00  0.00    -0.506 OA
ATOM    109  HH  TYR A   7      22.634   8.875 -29.913  0.00  0.00    +0.292 HD
ENDBRANCH 105 108
ENDBRANCH 101 102
ENDBRANCH   1 101
TORSDOF 43
REMARK  Name = ../refined-set-2016/3u6h/3u6h_pocket.pdb
REMARK  259 active torsions:
REMARK  status: ('A' for Active; 'I' for Inactive)
REMARK    1  A    between atoms: _1  and  _3
REMARK    2  A    between atoms: _3  and  _4
REMARK    3  A    between atoms: _3  and  _6
REMARK    4  A    between atoms: _9  and  _11
REMARK    5  A    between atoms: _11  and  _12
REMARK    6  A    between atoms: _11  and  _14
REMARK    7  A    between atoms: _17  and  _19
REMARK    8  A    between atoms: _19  and  _20
REMARK    9  A    between atoms: _19  and  _22
REMARK   10  A    between atoms: _22  and  _23
REMARK   11  A    between atoms: _26  and  _28
REMARK   12  A    between atoms: _28  and  _29
REMARK   13  A    between atoms: _31  and  _33
REMARK   14  A    between atoms: _33  and  _34
REMARK   15  A    between atoms: _33  and  _36
REMARK   16  A    between atoms: _36  and  _37
REMARK   17  A    between atoms: _37  and  _38
REMARK   18  A    between atoms: _38  and  _39
REMARK   19  A    between atoms: _48  and  _50
REMARK   20  A    between atoms: _50  and  _51
REMARK   21  A    between atoms: _53  and  _55
REMARK   22  A    between atoms: _55  and  _56
REMARK   23  A    between atoms: _55  and  _58
REMARK   24  A    between atoms: _58  and  _59
REMARK   25  A    between atoms: _64  and  _66
REMARK   26  A    between atoms: _66  and  _67
REMARK   27  A    between atoms: _66  and  _69
REMARK   28  A    between atoms: _69  and  _70
REMARK   29  A    between atoms: _76  and  _78
REMARK   30  A    between atoms: _78  and  _79
REMARK   31  A    between atoms: _81  and  _83
REMARK   32  A    between atoms: _83  and  _84
REMARK   33  A    between atoms: _83  and  _86
REMARK   34  A    between atoms: _88  and  _90
REMARK   35  A    between atoms: _90  and  _91
REMARK   36  A    between atoms: _90  and  _93
REMARK   37  A    between atoms: _96  and  _98
REMARK   38  A    between atoms: _98  and  _99
REMARK   39  A    between atoms: _98  and  _101
REMARK   40  A    between atoms: _101  and  _102
REMARK   41  A    between atoms: _107  and  _108
REMARK   42  A    between atoms: _110  and  _112
REMARK   43  A    between atoms: _112  and  _113
REMARK   44  A    between atoms: _112  and  _115
REMARK   45  A    between atoms: _115  and  _116
REMARK   46  A    between atoms: _121  and  _123
REMARK   47  A    between atoms: _123  and  _124
REMARK   48  A    between atoms: _123  and  _126
REMARK   49  A    between atoms: _126  and  _127
REMARK   50  A    between atoms: _132  and  _134
REMARK   51  A    between atoms: _134  and  _135
REMARK   52  A    between atoms: _134  and  _137
REMARK   53  A    between atoms: _139  and  _141
REMARK   54  A    between atoms: _141  and  _142
REMARK   55  A    between atoms: _145  and  _147
REMARK   56  A    between atoms: _147  and  _148
REMARK   57  A    between atoms: _147  and  _150
REMARK   58  A    between atoms: _153  and  _155
REMARK   59  A    between atoms: _155  and  _156
REMARK   60  A    between atoms: _155  and  _158
REMARK   61  A    between atoms: _158  and  _159
REMARK   62  A    between atoms: _159  and  _160
REMARK   63  A    between atoms: _160  and  _161
REMARK   64  A    between atoms: _161  and  _162
REMARK   65  A    between atoms: _166  and  _168
REMARK   66  A    between atoms: _168  and  _169
REMARK   67  A    between atoms: _168  and  _171
REMARK   68  A    between atoms: _171  and  _172
REMARK   69  A    between atoms: _174  and  _176
REMARK   70  A    between atoms: _176  and  _177
REMARK   71  A    between atoms: _176  and  _179
REMARK   72  A    between atoms: _179  and  _180
REMARK   73  A    between atoms: _183  and  _185
REMARK   74  A    between atoms: _185  and  _186
REMARK   75  A    between atoms: _185  and  _188
REMARK   76  A    between atoms: _188  and  _189
REMARK   77  A    between atoms: _192  and  _194
REMARK   78  A    between atoms: _194  and  _195
REMARK   79  A    between atoms: _194  and  _197
REMARK   80  A    between atoms: _197  and  _198
REMARK   81  A    between atoms: _198  and  _199
REMARK   82  A    between atoms: _202  and  _204
REMARK   83  A    between atoms: _204  and  _205
REMARK   84  A    between atoms: _204  and  _207
REMARK   85  A    between atoms: _210  and  _212
REMARK   86  A    between atoms: _212  and  _213
REMARK   87  A    between atoms: _212  and  _215
REMARK   88  A    between atoms: _215  and  _216
REMARK   89  A    between atoms: _216  and  _217
REMARK   90  A    between atoms: _222  and  _224
REMARK   91  A    between atoms: _224  and  _225
REMARK   92  A    between atoms: _224  and  _227
REMARK   93  A    between atoms: _227  and  _228
REMARK   94  A    between atoms: _234  and  _236
REMARK   95  A    between atoms: _236  and  _237
REMARK   96  A    between atoms: _236  and  _239
REMARK   97  A    between atoms: _239  and  _240
REMARK   98  A    between atoms: _243  and  _245
REMARK   99  A    between atoms: _245  and  _246
REMARK  100  A    between atoms: _245  and  _248
REMARK  101  A    between atoms: _248  and  _249
REMARK  102  A    between atoms: _252  and  _254
REMARK  103  A    between atoms: _254  and  _255
REMARK  104  A    between atoms: _254  and  _257
REMARK  105  A    between atoms: _257  and  _258
REMARK  106  A    between atoms: _258  and  _259
REMARK  107  A    between atoms: _262  and  _264
REMARK  108  A    between atoms: _264  and  _265
REMARK  109  A    between atoms: _267  and  _269
REMARK  110  A    between atoms: _269  and  _270
REMARK  111  A    between atoms: _269  and  _272
REMARK  112  A    between atoms: _272  and  _273
REMARK  113  A    between atoms: _276  and  _278
REMARK  114  A    between atoms: _278  and  _279
REMARK  115  A    between atoms: _278  and  _281
REMARK  116  A    between atoms: _281  and  _282
REMARK  117  A    between atoms: _285  and  _287
REMARK  118  A    between atoms: _287  and  _288
REMARK  119  A    between atoms: _287  and  _290
REMARK  120  A    between atoms: _290  and  _291
REMARK  121  A    between atoms: _291  and  _292
REMARK  122  A    between atoms: _294  and  _296
REMARK  123  A    between atoms: _296  and  _297
REMARK  124  A    between atoms: _296  and  _299
REMARK  125  A    between atoms: _299  and  _300
REMARK  126  A    between atoms: _300  and  _301
REMARK  127  A    between atoms: _301  and  _302
REMARK  128  A    between atoms: _302  and  _303
REMARK  129  A    between atoms: _307  and  _309
REMARK  130  A    between atoms: _309  and  _310
REMARK  131  A    between atoms: _309  and  _312
REMARK  132  A    between atoms: _312  and  _313
REMARK  133  A    between atoms: _319  and  _321
REMARK  134  A    between atoms: _321  and  _322
REMARK  135  A    between atoms: _321  and  _324
REMARK  136  A    between atoms: _327  and  _329
REMARK  137  A    between atoms: _329  and  _330
REMARK  138  A    between atoms: _329  and  _332
REMARK  139  A    between atoms: _332  and  _333
REMARK  140  A    between atoms: _336  and  _338
REMARK  141  A    between atoms: _338  and  _339
REMARK  142  A    between atoms: _338  and  _341
REMARK  143  A    between atoms: _341  and  _342
REMARK  144  A    between atoms: _344  and  _346
REMARK  145  A    between atoms: _346  and  _347
REMARK  146  A    between atoms: _346  and  _349
REMARK  147  A    between atoms: _349  and  _350
REMARK  148  A    between atoms: _353  and  _355
REMARK  149  A    between atoms: _355  and  _356
REMARK  150  A    between atoms: _358  and  _360
REMARK  151  A    between atoms: _360  and  _361
REMARK  152  A    between atoms: _360  and  _363
REMARK  153  A    between atoms: _363  and  _364
REMARK  154  A    between atoms: _367  and  _369
REMARK  155  A    between atoms: _369  and  _370
REMARK  156  A    between atoms: _369  and  _372
REMARK  157  A    between atoms: _375  and  _376
REMARK  158  A    between atoms: _381  and  _383
REMARK  159  A    between atoms: _383  and  _384
REMARK  160  A    between atoms: _383  and  _386
REMARK  161  A    between atoms: _386  and  _387
REMARK  162  A    between atoms: _390  and  _392
REMARK  163  A    between atoms: _392  and  _393
REMARK  164  A    between atoms: _392  and  _395
REMARK  165  A    between atoms: _398  and  _400
REMARK  166  A    between atoms: _400  and  _401
REMARK  167  A    between atoms: _400  and  _403
REMARK  168  A    between atoms: _406  and  _408
REMARK  169  A    between atoms: _408  and  _409
REMARK  170  A    between atoms: _408  and  _411
REMARK  171  A    between atoms: _411  and  _412
REMARK  172  A    between atoms: _416  and  _417
REMARK  173  A    between atoms: _422  and  _424
REMARK  174  A    between atoms: _424  and  _425
REMARK  175  A    between atoms: _424  and  _427
REMARK  176  A    between atoms: _427  and  _428
REMARK  177  A    between atoms: _433  and  _434
REMARK  178  A    between atoms: _436  and  _438
REMARK  179  A    between atoms: _438  and  _439
REMARK  180  A    between atoms: _438  and  _441
REMARK  181  A    between atoms: _441  and  _442
REMARK  182  A    between atoms: _442  and  _443
REMARK  183  A    between atoms: _445  and  _447
REMARK  184  A    between atoms: _447  and  _448
REMARK  185  A    between atoms: _447  and  _450
REMARK  186  A    between atoms: _450  and  _451
REMARK  187  A    between atoms: _451  and  _452
REMARK  188  A    between atoms: _452  and  _453
REMARK  189  A    between atoms: _453  and  _454
REMARK  190  A    between atoms: _458  and  _460
REMARK  191  A    between atoms: _460  and  _461
REMARK  192  A    between atoms: _460  and  _463
REMARK  193  A    between atoms: _463  and  _464
REMARK  194  A    between atoms: _469  and  _471
REMARK  195  A    between atoms: _471  and  _472
REMARK  196  A    between atoms: _474  and  _476
REMARK  197  A    between atoms: _476  and  _477
REMARK  198  A    between atoms: _476  and  _479
REMARK  199  A    between atoms: _479  and  _480
REMARK  200  A    between atoms: _483  and  _485
REMARK  201  A    between atoms: _485  and  _486
REMARK  202  A    between atoms: _485  and  _488
REMARK  203  A    between atoms: _488  and  _489
REMARK  204  A    between atoms: _494  and  _496
REMARK  205  A    between atoms: _496  and  _497
REMARK  206  A    between atoms: _496  and  _499
REMARK  207  A    between atoms: _499  and  _500
REMARK  208  A    between atoms: _503  and  _505
REMARK  209  A    between atoms: _505  and  _506
REMARK  210  A    between atoms: _505  and  _508
REMARK  211  A    between atoms: _508  and  _509
REMARK  212  A    between atoms: _515  and  _517
REMARK  213  A    between atoms: _517  and  _518
REMARK  214  A    between atoms: _517  and  _520
REMARK  215  A    between atoms: _520  and  _521
REMARK  216  A    between atoms: _526  and  _528
REMARK  217  A    between atoms: _528  and  _529
REMARK  218  A    between atoms: _528  and  _531
REMARK  219  A    between atoms: _531  and  _532
REMARK  220  A    between atoms: _532  and  _533
REMARK  221  A    between atoms: _533  and  _534
REMARK  222  A    between atoms: _543  and  _545
REMARK  223  A    between atoms: _545  and  _546
REMARK  224  A    between atoms: _545  and  _548
REMARK  225  A    between atoms: _548  and  _549
REMARK  226  A    between atoms: _554  and  _556
REMARK  227  A    between atoms: _556  and  _557
REMARK  228  A    between atoms: _556  and  _559
REMARK  229  A    between atoms: _561  and  _563
REMARK  230  A    between atoms: _563  and  _564
REMARK  231  A    between atoms: _563  and  _566
REMARK  232  A    between atoms: _566  and  _567
REMARK  233  A    between atoms: _567  and  _568
REMARK  234  A    between atoms: _570  and  _572
REMARK  235  A    between atoms: _572  and  _573
REMARK  236  A    between atoms: _572  and  _575
REMARK  237  A    between atoms: _575  and  _576
REMARK  238  A    between atoms: _579  and  _581
REMARK  239  A    between atoms: _581  and  _582
REMARK  240  A    between atoms: _581  and  _584
REMARK  241  A    between atoms: _584  and  _585
REMARK  242  A    between atoms: _585  and  _586
REMARK  243  A    between atoms: _586  and  _587
REMARK  244  A    between atoms: _587  and  _588
REMARK  245  A    between atoms: _592  and  _594
REMARK  246  A    between atoms: _594  and  _595
REMARK  247  A    between atoms: _594  and  _597
REMARK  248  A    between atoms: _600  and  _602
REMARK  249  A    between atoms: _602  and  _603
REMARK  250  A    between atoms: _606  and  _608
REMARK  251  A    between atoms: _608  and  _609
REMARK  252  A    between atoms: _608  and  _611
REMARK  253  A    between atoms: _611  and  _612
REMARK  254  A    between atoms: _615  and  _617
REMARK  255  A    between atoms: _617  and  _618
REMARK  256  A    between atoms: _617  and  _620
REMARK  257  A    between atoms: _620  and  _621
REMARK  258  A    between atoms: _627  and  _629
REMARK  259  A    between atoms: _629  and  _630
REMARK                            x       y       z     vdW  Elec       q    Type
REMARK                         _______ _______ _______ _____ _____    ______ ____
ROOT
ATOM      1  CB  ASN A   1      12.429   2.575 -27.373  0.00  0.00    +0.110 C 
ENDROOT
BRANCH   1   2
ATOM      2  CG  ASN A   1      11.532   3.119 -26.251  0.00  0.00    +0.221 C 
ATOM      3  ND2 ASN A   1      12.148   3.553 -25.150  0.00  0.00    -0.329 N 
ATOM      4 HD21 ASN A   1      11.591   3.930 -24.357  0.00  0.00    +0.145 HD
ATOM      5 HD22 ASN A   1      13.185   3.514 -25.085  0.00  0.00    +0.145 HD
ATOM      6  OD1 ASN A   1      10.303   3.145 -26.375  0.00  0.00    -0.275 OA
ENDBRANCH   1   2
BRANCH   1   7
ATOM      7  CA  ASN A   1      11.964   1.206 -27.882  0.00  0.00    +0.142 C 
BRANCH   7   8
ATOM      8  N   ASN A   1      12.238   0.156 -26.912  0.00  0.00    -0.239 NA
ATOM      9  H   ASN A   1      12.908   0.330 -26.136  0.00  0.00    +0.142 HD
ENDBRANCH   7   8
BRANCH   7  10
ATOM     10  C   ASN A   1      12.478   0.867 -29.293  0.00  0.00    +0.225 C 
ATOM     11  O   ASN A   1      11.820   1.196 -30.271  0.00  0.00    -0.287 OA
ENDBRANCH   7  10
ENDBRANCH   1   7
TORSDOF 4
REMARK  Name = ../refined-set-2016/3u6h/3u6h_pocket.pdb
REMARK  259 active torsions:
REMARK  status: ('A' for Active; 'I' for Inactive)
REMARK    1  A    between atoms: _1  and  _3
REMARK    2  A    between atoms: _3  and  _4
REMARK    3  A    between atoms: _3  and  _6
REMARK    4  A    between atoms: _9  and  _11
REMARK    5  A    between atoms: _11  and  _12
REMARK    6  A    between atoms: _11  and  _14
REMARK    7  A    between atoms: _17  and  _19
REMARK    8  A    between atoms: _19  and  _20
REMARK    9  A    between atoms: _19  and  _22
REMARK   10  A    between atoms: _22  and  _23
REMARK   11  A    between atoms: _26  and  _28
REMARK   12  A    between atoms: _28  and  _29
REMARK   13  A    between atoms: _31  and  _33
REMARK   14  A    between atoms: _33  and  _34
REMARK   15  A    between atoms: _33  and  _36
REMARK   16  A    between atoms: _36  and  _37
REMARK   17  A    between atoms: _37  and  _38
REMARK   18  A    between atoms: _38  and  _39
REMARK   19  A    between atoms: _48  and  _50
REMARK   20  A    between atoms: _50  and  _51
REMARK   21  A    between atoms: _53  and  _55
REMARK   22  A    between atoms: _55  and  _56
REMARK   23  A    between atoms: _55  and  _58
REMARK   24  A    between atoms: _58  and  _59
REMARK   25  A    between atoms: _64  and  _66
REMARK   26  A    between atoms: _66  and  _67
REMARK   27  A    between atoms: _66  and  _69
REMARK   28  A    between atoms: _69  and  _70
REMARK   29  A    between atoms: _76  and  _78
REMARK   30  A    between atoms: _78  and  _79
REMARK   31  A    between atoms: _81  and  _83
REMARK   32  A    between atoms: _83  and  _84
REMARK   33  A    between atoms: _83  and  _86
REMARK   34  A    between atoms: _88  and  _90
REMARK   35  A    between atoms: _90  and  _91
REMARK   36  A    between atoms: _90  and  _93
REMARK   37  A    between atoms: _96  and  _98
REMARK   38  A    between atoms: _98  and  _99
REMARK   39  A    between atoms: _98  and  _101
REMARK   40  A    between atoms: _101  and  _102
REMARK   41  A    between atoms: _107  and  _108
REMARK   42  A    between atoms: _110  and  _112
REMARK   43  A    between atoms: _112  and  _113
REMARK   44  A    between atoms: _112  and  _115
REMARK   45  A    between atoms: _115  and  _116
REMARK   46  A    between atoms: _121  and  _123
REMARK   47  A    between atoms: _123  and  _124
REMARK   48  A    between atoms: _123  and  _126
REMARK   49  A    between atoms: _126  and  _127
REMARK   50  A    between atoms: _132  and  _134
REMARK   51  A    between atoms: _134  and  _135
REMARK   52  A    between atoms: _134  and  _137
REMARK   53  A    between atoms: _139  and  _141
REMARK   54  A    between atoms: _141  and  _142
REMARK   55  A    between atoms: _145  and  _147
REMARK   56  A    between atoms: _147  and  _148
REMARK   57  A    between atoms: _147  and  _150
REMARK   58  A    between atoms: _153  and  _155
REMARK   59  A    between atoms: _155  and  _156
REMARK   60  A    between atoms: _155  and  _158
REMARK   61  A    between atoms: _158  and  _159
REMARK   62  A    between atoms: _159  and  _160
REMARK   63  A    between atoms: _160  and  _161
REMARK   64  A    between atoms: _161  and  _162
REMARK   65  A    between atoms: _166  and  _168
REMARK   66  A    between atoms: _168  and  _169
REMARK   67  A    between atoms: _168  and  _171
REMARK   68  A    between atoms: _171  and  _172
REMARK   69  A    between atoms: _174  and  _176
REMARK   70  A    between atoms: _176  and  _177
REMARK   71  A    between atoms: _176  and  _179
REMARK   72  A    between atoms: _179  and  _180
REMARK   73  A    between atoms: _183  and  _185
REMARK   74  A    between atoms: _185  and  _186
REMARK   75  A    between atoms: _185  and  _188
REMARK   76  A    between atoms: _188  and  _189
REMARK   77  A    between atoms: _192  and  _194
REMARK   78  A    between atoms: _194  and  _195
REMARK   79  A    between atoms: _194  and  _197
REMARK   80  A    between atoms: _197  and  _198
REMARK   81  A    between atoms: _198  and  _199
REMARK   82  A    between atoms: _202  and  _204
REMARK   83  A    between atoms: _204  and  _205
REMARK   84  A    between atoms: _204  and  _207
REMARK   85  A    between atoms: _210  and  _212
REMARK   86  A    between atoms: _212  and  _213
REMARK   87  A    between atoms: _212  and  _215
REMARK   88  A    between atoms: _215  and  _216
REMARK   89  A    between atoms: _216  and  _217
REMARK   90  A    between atoms: _222  and  _224
REMARK   91  A    between atoms: _224  and  _225
REMARK   92  A    between atoms: _224  and  _227
REMARK   93  A    between atoms: _227  and  _228
REMARK   94  A    between atoms: _234  and  _236
REMARK   95  A    between atoms: _236  and  _237
REMARK   96  A    between atoms: _236  and  _239
REMARK   97  A    between atoms: _239  and  _240
REMARK   98  A    between atoms: _243  and  _245
REMARK   99  A    between atoms: _245  and  _246
REMARK  100  A    between atoms: _245  and  _248
REMARK  101  A    between atoms: _248  and  _249
REMARK  102  A    between atoms: _252  and  _254
REMARK  103  A    between atoms: _254  and  _255
REMARK  104  A    between atoms: _254  and  _257
REMARK  105  A    between atoms: _257  and  _258
REMARK  106  A    between atoms: _258  and  _259
REMARK  107  A    between atoms: _262  and  _264
REMARK  108  A    between atoms: _264  and  _265
REMARK  109  A    between atoms: _267  and  _269
REMARK  110  A    between atoms: _269  and  _270
REMARK  111  A    between atoms: _269  and  _272
REMARK  112  A    between atoms: _272  and  _273
REMARK  113  A    between atoms: _276  and  _278
REMARK  114  A    between atoms: _278  and  _279
REMARK  115  A    between atoms: _278  and  _281
REMARK  116  A    between atoms: _281  and  _282
REMARK  117  A    between atoms: _285  and  _287
REMARK  118  A    between atoms: _287  and  _288
REMARK  119  A    between atoms: _287  and  _290
REMARK  120  A    between atoms: _290  and  _291
REMARK  121  A    between atoms: _291  and  _292
REMARK  122  A    between atoms: _294  and  _296
REMARK  123  A    between atoms: _296  and  _297
REMARK  124  A    between atoms: _296  and  _299
REMARK  125  A    between atoms: _299  and  _300
REMARK  126  A    between atoms: _300  and  _301
REMARK  127  A    between atoms: _301  and  _302
REMARK  128  A    between atoms: _302  and  _303
REMARK  129  A    between atoms: _307  and  _309
REMARK  130  A    between atoms: _309  and  _310
REMARK  131  A    between atoms: _309  and  _312
REMARK  132  A    between atoms: _312  and  _313
REMARK  133  A    between atoms: _319  and  _321
REMARK  134  A    between atoms: _321  and  _322
REMARK  135  A    between atoms: _321  and  _324
REMARK  136  A    between atoms: _327  and  _329
REMARK  137  A    between atoms: _329  and  _330
REMARK  138  A    between atoms: _329  and  _332
REMARK  139  A    between atoms: _332  and  _333
REMARK  140  A    between atoms: _336  and  _338
REMARK  141  A    between atoms: _338  and  _339
REMARK  142  A    between atoms: _338  and  _341
REMARK  143  A    between atoms: _341  and  _342
REMARK  144  A    between atoms: _344  and  _346
REMARK  145  A    between atoms: _346  and  _347
REMARK  146  A    between atoms: _346  and  _349
REMARK  147  A    between atoms: _349  and  _350
REMARK  148  A    between atoms: _353  and  _355
REMARK  149  A    between atoms: _355  and  _356
REMARK  150  A    between atoms: _358  and  _360
REMARK  151  A    between atoms: _360  and  _361
REMARK  152  A    between atoms: _360  and  _363
REMARK  153  A    between atoms: _363  and  _364
REMARK  154  A    between atoms: _367  and  _369
REMARK  155  A    between atoms: _369  and  _370
REMARK  156  A    between atoms: _369  and  _372
REMARK  157  A    between atoms: _375  and  _376
REMARK  158  A    between atoms: _381  and  _383
REMARK  159  A    between atoms: _383  and  _384
REMARK  160  A    between atoms: _383  and  _386
REMARK  161  A    between atoms: _386  and  _387
REMARK  162  A    between atoms: _390  and  _392
REMARK  163  A    between atoms: _392  and  _393
REMARK  164  A    between atoms: _392  and  _395
REMARK  165  A    between atoms: _398  and  _400
REMARK  166  A    between atoms: _400  and  _401
REMARK  167  A    between atoms: _400  and  _403
REMARK  168  A    between atoms: _406  and  _408
REMARK  169  A    between atoms: _408  and  _409
REMARK  170  A    between atoms: _408  and  _411
REMARK  171  A    between atoms: _411  and  _412
REMARK  172  A    between atoms: _416  and  _417
REMARK  173  A    between atoms: _422  and  _424
REMARK  174  A    between atoms: _424  and  _425
REMARK  175  A    between atoms: _424  and  _427
REMARK  176  A    between atoms: _427  and  _428
REMARK  177  A    between atoms: _433  and  _434
REMARK  178  A    between atoms: _436  and  _438
REMARK  179  A    between atoms: _438  and  _439
REMARK  180  A    between atoms: _438  and  _441
REMARK  181  A    between atoms: _441  and  _442
REMARK  182  A    between atoms: _442  and  _443
REMARK  183  A    between atoms: _445  and  _447
REMARK  184  A    between atoms: _447  and  _448
REMARK  185  A    between atoms: _447  and  _450
REMARK  186  A    between atoms: _450  and  _451
REMARK  187  A    between atoms: _451  and  _452
REMARK  188  A    between atoms: _452  and  _453
REMARK  189  A    between atoms: _453  and  _454
REMARK  190  A    between atoms: _458  and  _460
REMARK  191  A    between atoms: _460  and  _461
REMARK  192  A    between atoms: _460  and  _463
REMARK  193  A    between atoms: _463  and  _464
REMARK  194  A    between atoms: _469  and  _471
REMARK  195  A    between atoms: _471  and  _472
REMARK  196  A    between atoms: _474  and  _476
REMARK  197  A    between atoms: _476  and  _477
REMARK  198  A    between atoms: _476  and  _479
REMARK  199  A    between atoms: _479  and  _480
REMARK  200  A    between atoms: _483  and  _485
REMARK  201  A    between atoms: _485  and  _486
REMARK  202  A    between atoms: _485  and  _488
REMARK  203  A    between atoms: _488  and  _489
REMARK  204  A    between atoms: _494  and  _496
REMARK  205  A    between atoms: _496  and  _497
REMARK  206  A    between atoms: _496  and  _499
REMARK  207  A    between atoms: _499  and  _500
REMARK  208  A    between atoms: _503  and  _505
REMARK  209  A    between atoms: _505  and  _506
REMARK  210  A    between atoms: _505  and  _508
REMARK  211  A    between atoms: _508  and  _509
REMARK  212  A    between atoms: _515  and  _517
REMARK  213  A    between atoms: _517  and  _518
REMARK  214  A    between atoms: _517  and  _520
REMARK  215  A    between atoms: _520  and  _521
REMARK  216  A    between atoms: _526  and  _528
REMARK  217  A    between atoms: _528  and  _529
REMARK  218  A    between atoms: _528  and  _531
REMARK  219  A    between atoms: _531  and  _532
REMARK  220  A    between atoms: _532  and  _533
REMARK  221  A    between atoms: _533  and  _534
REMARK  222  A    between atoms: _543  and  _545
REMARK  223  A    between atoms: _545  and  _546
REMARK  224  A    between atoms: _545  and  _548
REMARK  225  A    between atoms: _548  and  _549
REMARK  226  A    between atoms: _554  and  _556
REMARK  227  A    between atoms: _556  and  _557
REMARK  228  A    between atoms: _556  and  _559
REMARK  229  A    between atoms: _561  and  _563
REMARK  230  A    between atoms: _563  and  _564
REMARK  231  A    between atoms: _563  and  _566
REMARK  232  A    between atoms: _566  and  _567
REMARK  233  A    between atoms: _567  and  _568
REMARK  234  A    between atoms: _570  and  _572
REMARK  235  A    between atoms: _572  and  _573
REMARK  236  A    between atoms: _572  and  _575
REMARK  237  A    between atoms: _575  and  _576
REMARK  238  A    between atoms: _579  and  _581
REMARK  239  A    between atoms: _581  and  _582
REMARK  240  A    between atoms: _581  and  _584
REMARK  241  A    between atoms: _584  and  _585
REMARK  242  A    between atoms: _585  and  _586
REMARK  243  A    between atoms: _586  and  _587
REMARK  244  A    between atoms: _587  and  _588
REMARK  245  A    between atoms: _592  and  _594
REMARK  246  A    between atoms: _594  and  _595
REMARK  247  A    between atoms: _594  and  _597
REMARK  248  A    between atoms: _600  and  _602
REMARK  249  A    between atoms: _602  and  _603
REMARK  250  A    between atoms: _606  and  _608
REMARK  251  A    between atoms: _608  and  _609
REMARK  252  A    between atoms: _608  and  _611
REMARK  253  A    between atoms: _611  and  _612
REMARK  254  A    between atoms: _615  and  _617
REMARK  255  A    between atoms: _617  and  _618
REMARK  256  A    between atoms: _617  and  _620
REMARK  257  A    between atoms: _620  and  _621
REMARK  258  A    between atoms: _627  and  _629
REMARK  259  A    between atoms: _629  and  _630
REMARK                            x       y       z     vdW  Elec       q    Type
REMARK                         _______ _______ _______ _____ _____    ______ ____
ROOT
ATOM      1  CA  LEU A   1      26.234 -11.711 -13.962  0.00  0.00    +0.133 C 
ENDROOT
BRANCH   1   2
ATOM      2  N   LEU A   1      26.639 -12.319 -15.233  0.00  0.00    -0.239 NA
ATOM      3  H   LEU A   1      26.076 -12.134 -16.087  0.00  0.00    +0.142 HD
ENDBRANCH   1   2
BRANCH   1   4
ATOM      4  C   LEU A   1      25.967 -12.729 -12.858  0.00  0.00    +0.224 C 
ATOM      5  O   LEU A   1      26.390 -12.532 -11.712  0.00  0.00    -0.287 OA
ENDBRANCH   1   4
BRANCH   1   6
ATOM      6  CB  LEU A   1      25.026 -10.774 -14.137  0.00  0.00    +0.025 C 
BRANCH   6   7
ATOM      7  CG  LEU A   1      25.284  -9.390 -14.751  0.00  0.00    +0.002 C 
ATOM      8  CD2 LEU A   1      26.416  -8.652 -14.032  0.00  0.00    +0.000 C 
ATOM      9  CD1 LEU A   1      24.022  -8.538 -14.746  0.00  0.00    +0.000 C 
ENDBRANCH   6   7
ENDBRANCH   1   6
TORSDOF 4
REMARK  Name = ../refined-set-2016/3u6h/3u6h_pocket.pdb
REMARK  259 active torsions:
REMARK  status: ('A' for Active; 'I' for Inactive)
REMARK    1  A    between atoms: _1  and  _3
REMARK    2  A    between atoms: _3  and  _4
REMARK    3  A    between atoms: _3  and  _6
REMARK    4  A    between atoms: _9  and  _11
REMARK    5  A    between atoms: _11  and  _12
REMARK    6  A    between atoms: _11  and  _14
REMARK    7  A    between atoms: _17  and  _19
REMARK    8  A    between atoms: _19  and  _20
REMARK    9  A    between atoms: _19  and  _22
REMARK   10  A    between atoms: _22  and  _23
REMARK   11  A    between atoms: _26  and  _28
REMARK   12  A    between atoms: _28  and  _29
REMARK   13  A    between atoms: _31  and  _33
REMARK   14  A    between atoms: _33  and  _34
REMARK   15  A    between atoms: _33  and  _36
REMARK   16  A    between atoms: _36  and  _37
REMARK   17  A    between atoms: _37  and  _38
REMARK   18  A    between atoms: _38  and  _39
REMARK   19  A    between atoms: _48  and  _50
REMARK   20  A    between atoms: _50  and  _51
REMARK   21  A    between atoms: _53  and  _55
REMARK   22  A    between atoms: _55  and  _56
REMARK   23  A    between atoms: _55  and  _58
REMARK   24  A    between atoms: _58  and  _59
REMARK   25  A    between atoms: _64  and  _66
REMARK   26  A    between atoms: _66  and  _67
REMARK   27  A    between atoms: _66  and  _69
REMARK   28  A    between atoms: _69  and  _70
REMARK   29  A    between atoms: _76  and  _78
REMARK   30  A    between atoms: _78  and  _79
REMARK   31  A    between atoms: _81  and  _83
REMARK   32  A    between atoms: _83  and  _84
REMARK   33  A    between atoms: _83  and  _86
REMARK   34  A    between atoms: _88  and  _90
REMARK   35  A    between atoms: _90  and  _91
REMARK   36  A    between atoms: _90  and  _93
REMARK   37  A    between atoms: _96  and  _98
REMARK   38  A    between atoms: _98  and  _99
REMARK   39  A    between atoms: _98  and  _101
REMARK   40  A    between atoms: _101  and  _102
REMARK   41  A    between atoms: _107  and  _108
REMARK   42  A    between atoms: _110  and  _112
REMARK   43  A    between atoms: _112  and  _113
REMARK   44  A    between atoms: _112  and  _115
REMARK   45  A    between atoms: _115  and  _116
REMARK   46  A    between atoms: _121  and  _123
REMARK   47  A    between atoms: _123  and  _124
REMARK   48  A    between atoms: _123  and  _126
REMARK   49  A    between atoms: _126  and  _127
REMARK   50  A    between atoms: _132  and  _134
REMARK   51  A    between atoms: _134  and  _135
REMARK   52  A    between atoms: _134  and  _137
REMARK   53  A    between atoms: _139  and  _141
REMARK   54  A    between atoms: _141  and  _142
REMARK   55  A    between atoms: _145  and  _147
REMARK   56  A    between atoms: _147  and  _148
REMARK   57  A    between atoms: _147  and  _150
REMARK   58  A    between atoms: _153  and  _155
REMARK   59  A    between atoms: _155  and  _156
REMARK   60  A    between atoms: _155  and  _158
REMARK   61  A    between atoms: _158  and  _159
REMARK   62  A    between atoms: _159  and  _160
REMARK   63  A    between atoms: _160  and  _161
REMARK   64  A    between atoms: _161  and  _162
REMARK   65  A    between atoms: _166  and  _168
REMARK   66  A    between atoms: _168  and  _169
REMARK   67  A    between atoms: _168  and  _171
REMARK   68  A    between atoms: _171  and  _172
REMARK   69  A    between atoms: _174  and  _176
REMARK   70  A    between atoms: _176  and  _177
REMARK   71  A    between atoms: _176  and  _179
REMARK   72  A    between atoms: _179  and  _180
REMARK   73  A    between atoms: _183  and  _185
REMARK   74  A    between atoms: _185  and  _186
REMARK   75  A    between atoms: _185  and  _188
REMARK   76  A    between atoms: _188  and  _189
REMARK   77  A    between atoms: _192  and  _194
REMARK   78  A    between atoms: _194  and  _195
REMARK   79  A    between atoms: _194  and  _197
REMARK   80  A    between atoms: _197  and  _198
REMARK   81  A    between atoms: _198  and  _199
REMARK   82  A    between atoms: _202  and  _204
REMARK   83  A    between atoms: _204  and  _205
REMARK   84  A    between atoms: _204  and  _207
REMARK   85  A    between atoms: _210  and  _212
REMARK   86  A    between atoms: _212  and  _213
REMARK   87  A    between atoms: _212  and  _215
REMARK   88  A    between atoms: _215  and  _216
REMARK   89  A    between atoms: _216  and  _217
REMARK   90  A    between atoms: _222  and  _224
REMARK   91  A    between atoms: _224  and  _225
REMARK   92  A    between atoms: _224  and  _227
REMARK   93  A    between atoms: _227  and  _228
REMARK   94  A    between atoms: _234  and  _236
REMARK   95  A    between atoms: _236  and  _237
REMARK   96  A    between atoms: _236  and  _239
REMARK   97  A    between atoms: _239  and  _240
REMARK   98  A    between atoms: _243  and  _245
REMARK   99  A    between atoms: _245  and  _246
REMARK  100  A    between atoms: _245  and  _248
REMARK  101  A    between atoms: _248  and  _249
REMARK  102  A    between atoms: _252  and  _254
REMARK  103  A    between atoms: _254  and  _255
REMARK  104  A    between atoms: _254  and  _257
REMARK  105  A    between atoms: _257  and  _258
REMARK  106  A    between atoms: _258  and  _259
REMARK  107  A    between atoms: _262  and  _264
REMARK  108  A    between atoms: _264  and  _265
REMARK  109  A    between atoms: _267  and  _269
REMARK  110  A    between atoms: _269  and  _270
REMARK  111  A    between atoms: _269  and  _272
REMARK  112  A    between atoms: _272  and  _273
REMARK  113  A    between atoms: _276  and  _278
REMARK  114  A    between atoms: _278  and  _279
REMARK  115  A    between atoms: _278  and  _281
REMARK  116  A    between atoms: _281  and  _282
REMARK  117  A    between atoms: _285  and  _287
REMARK  118  A    between atoms: _287  and  _288
REMARK  119  A    between atoms: _287  and  _290
REMARK  120  A    between atoms: _290  and  _291
REMARK  121  A    between atoms: _291  and  _292
REMARK  122  A    between atoms: _294  and  _296
REMARK  123  A    between atoms: _296  and  _297
REMARK  124  A    between atoms: _296  and  _299
REMARK  125  A    between atoms: _299  and  _300
REMARK  126  A    between atoms: _300  and  _301
REMARK  127  A    between atoms: _301  and  _302
REMARK  128  A    between atoms: _302  and  _303
REMARK  129  A    between atoms: _307  and  _309
REMARK  130  A    between atoms: _309  and  _310
REMARK  131  A    between atoms: _309  and  _312
REMARK  132  A    between atoms: _312  and  _313
REMARK  133  A    between atoms: _319  and  _321
REMARK  134  A    between atoms: _321  and  _322
REMARK  135  A    between atoms: _321  and  _324
REMARK  136  A    between atoms: _327  and  _329
REMARK  137  A    between atoms: _329  and  _330
REMARK  138  A    between atoms: _329  and  _332
REMARK  139  A    between atoms: _332  and  _333
REMARK  140  A    between atoms: _336  and  _338
REMARK  141  A    between atoms: _338  and  _339
REMARK  142  A    between atoms: _338  and  _341
REMARK  143  A    between atoms: _341  and  _342
REMARK  144  A    between atoms: _344  and  _346
REMARK  145  A    between atoms: _346  and  _347
REMARK  146  A    between atoms: _346  and  _349
REMARK  147  A    between atoms: _349  and  _350
REMARK  148  A    between atoms: _353  and  _355
REMARK  149  A    between atoms: _355  and  _356
REMARK  150  A    between atoms: _358  and  _360
REMARK  151  A    between atoms: _360  and  _361
REMARK  152  A    between atoms: _360  and  _363
REMARK  153  A    between atoms: _363  and  _364
REMARK  154  A    between atoms: _367  and  _369
REMARK  155  A    between atoms: _369  and  _370
REMARK  156  A    between atoms: _369  and  _372
REMARK  157  A    between atoms: _375  and  _376
REMARK  158  A    between atoms: _381  and  _383
REMARK  159  A    between atoms: _383  and  _384
REMARK  160  A    between atoms: _383  and  _386
REMARK  161  A    between atoms: _386  and  _387
REMARK  162  A    between atoms: _390  and  _392
REMARK  163  A    between atoms: _392  and  _393
REMARK  164  A    between atoms: _392  and  _395
REMARK  165  A    between atoms: _398  and  _400
REMARK  166  A    between atoms: _400  and  _401
REMARK  167  A    between atoms: _400  and  _403
REMARK  168  A    between atoms: _406  and  _408
REMARK  169  A    between atoms: _408  and  _409
REMARK  170  A    between atoms: _408  and  _411
REMARK  171  A    between atoms: _411  and  _412
REMARK  172  A    between atoms: _416  and  _417
REMARK  173  A    between atoms: _422  and  _424
REMARK  174  A    between atoms: _424  and  _425
REMARK  175  A    between atoms: _424  and  _427
REMARK  176  A    between atoms: _427  and  _428
REMARK  177  A    between atoms: _433  and  _434
REMARK  178  A    between atoms: _436  and  _438
REMARK  179  A    between atoms: _438  and  _439
REMARK  180  A    between atoms: _438  and  _441
REMARK  181  A    between atoms: _441  and  _442
REMARK  182  A    between atoms: _442  and  _443
REMARK  183  A    between atoms: _445  and  _447
REMARK  184  A    between atoms: _447  and  _448
REMARK  185  A    between atoms: _447  and  _450
REMARK  186  A    between atoms: _450  and  _451
REMARK  187  A    between atoms: _451  and  _452
REMARK  188  A    between atoms: _452  and  _453
REMARK  189  A    between atoms: _453  and  _454
REMARK  190  A    between atoms: _458  and  _460
REMARK  191  A    between atoms: _460  and  _461
REMARK  192  A    between atoms: _460  and  _463
REMARK  193  A    between atoms: _463  and  _464
REMARK  194  A    between atoms: _469  and  _471
REMARK  195  A    between atoms: _471  and  _472
REMARK  196  A    between atoms: _474  and  _476
REMARK  197  A    between atoms: _476  and  _477
REMARK  198  A    between atoms: _476  and  _479
REMARK  199  A    between atoms: _479  and  _480
REMARK  200  A    between atoms: _483  and  _485
REMARK  201  A    between atoms: _485  and  _486
REMARK  202  A    between atoms: _485  and  _488
REMARK  203  A    between atoms: _488  and  _489
REMARK  204  A    between atoms: _494  and  _496
REMARK  205  A    between atoms: _496  and  _497
REMARK  206  A    between atoms: _496  and  _499
REMARK  207  A    between atoms: _499  and  _500
REMARK  208  A    between atoms: _503  and  _505
REMARK  209  A    between atoms: _505  and  _506
REMARK  210  A    between atoms: _505  and  _508
REMARK  211  A    between atoms: _508  and  _509
REMARK  212  A    between atoms: _515  and  _517
REMARK  213  A    between atoms: _517  and  _518
REMARK  214  A    between atoms: _517  and  _520
REMARK  215  A    between atoms: _520  and  _521
REMARK  216  A    between atoms: _526  and  _528
REMARK  217  A    between atoms: _528  and  _529
REMARK  218  A    between atoms: _528  and  _531
REMARK  219  A    between atoms: _531  and  _532
REMARK  220  A    between atoms: _532  and  _533
REMARK  221  A    between atoms: _533  and  _534
REMARK  222  A    between atoms: _543  and  _545
REMARK  223  A    between atoms: _545  and  _546
REMARK  224  A    between atoms: _545  and  _548
REMARK  225  A    between atoms: _548  and  _549
REMARK  226  A    between atoms: _554  and  _556
REMARK  227  A    between atoms: _556  and  _557
REMARK  228  A    between atoms: _556  and  _559
REMARK  229  A    between atoms: _561  and  _563
REMARK  230  A    between atoms: _563  and  _564
REMARK  231  A    between atoms: _563  and  _566
REMARK  232  A    between atoms: _566  and  _567
REMARK  233  A    between atoms: _567  and  _568
REMARK  234  A    between atoms: _570  and  _572
REMARK  235  A    between atoms: _572  and  _573
REMARK  236  A    between atoms: _572  and  _575
REMARK  237  A    between atoms: _575  and  _576
REMARK  238  A    between atoms: _579  and  _581
REMARK  239  A    between atoms: _581  and  _582
REMARK  240  A    between atoms: _581  and  _584
REMARK  241  A    between atoms: _584  and  _585
REMARK  242  A    between atoms: _585  and  _586
REMARK  243  A    between atoms: _586  and  _587
REMARK  244  A    between atoms: _587  and  _588
REMARK  245  A    between atoms: _592  and  _594
REMARK  246  A    between atoms: _594  and  _595
REMARK  247  A    between atoms: _594  and  _597
REMARK  248  A    between atoms: _600  and  _602
REMARK  249  A    between atoms: _602  and  _603
REMARK  250  A    between atoms: _606  and  _608
REMARK  251  A    between atoms: _608  and  _609
REMARK  252  A    between atoms: _608  and  _611
REMARK  253  A    between atoms: _611  and  _612
REMARK  254  A    between atoms: _615  and  _617
REMARK  255  A    between atoms: _617  and  _618
REMARK  256  A    between atoms: _617  and  _620
REMARK  257  A    between atoms: _620  and  _621
REMARK  258  A    between atoms: _627  and  _629
REMARK  259  A    between atoms: _629  and  _630
REMARK                            x       y       z     vdW  Elec       q    Type
REMARK                         _______ _______ _______ _____ _____    ______ ____
ROOT
ATOM      1  CB  PHE A   1      25.749  -9.697  -9.699  0.00  0.00    +0.051 C 
ENDROOT
BRANCH   1   2
ATOM      2  CG  PHE A   1      25.315  -8.288  -9.414  0.00  0.00    -0.020 A 
ATOM      3  CD2 PHE A   1      25.956  -7.535  -8.431  0.00  0.00    -0.004 A 
ATOM      4  CE2 PHE A   1      25.550  -6.226  -8.154  0.00  0.00    -0.000 A 
ATOM      5  CZ  PHE A   1      24.487  -5.668  -8.861  0.00  0.00    -0.000 A 
ATOM      6  CE1 PHE A   1      23.837  -6.416  -9.841  0.00  0.00    -0.000 A 
ATOM      7  CD1 PHE A   1      24.255  -7.717 -10.113  0.00  0.00    -0.004 A 
ENDBRANCH   1   2
BRANCH   1   8
ATOM      8  CA  PHE A   1      25.054 -10.746  -8.817  0.00  0.00    +0.137 C 
BRANCH   8   9
ATOM      9  N   PHE A   1      25.779 -12.010  -8.866  0.00  0.00    -0.239 NA
ATOM     10  H   PHE A   1      26.060 -12.392  -9.792  0.00  0.00    +0.142 HD
ENDBRANCH   8   9
BRANCH   8  11
ATOM     11  C   PHE A   1      23.604 -10.918  -9.249  0.00  0.00    +0.224 C 
ATOM     12  O   PHE A   1      23.329 -11.495 -10.300  0.00  0.00    -0.287 OA
ENDBRANCH   8  11
ENDBRANCH   1   8
TORSDOF 4
REMARK  Name = ../refined-set-2016/3u6h/3u6h_pocket.pdb
REMARK  259 active torsions:
REMARK  status: ('A' for Active; 'I' for Inactive)
REMARK    1  A    between atoms: _1  and  _3
REMARK    2  A    between atoms: _3  and  _4
REMARK    3  A    between atoms: _3  and  _6
REMARK    4  A    between atoms: _9  and  _11
REMARK    5  A    between atoms: _11  and  _12
REMARK    6  A    between atoms: _11  and  _14
REMARK    7  A    between atoms: _17  and  _19
REMARK    8  A    between atoms: _19  and  _20
REMARK    9  A    between atoms: _19  and  _22
REMARK   10  A    between atoms: _22  and  _23
REMARK   11  A    between atoms: _26  and  _28
REMARK   12  A    between atoms: _28  and  _29
REMARK   13  A    between atoms: _31  and  _33
REMARK   14  A    between atoms: _33  and  _34
REMARK   15  A    between atoms: _33  and  _36
REMARK   16  A    between atoms: _36  and  _37
REMARK   17  A    between atoms: _37  and  _38
REMARK   18  A    between atoms: _38  and  _39
REMARK   19  A    between atoms: _48  and  _50
REMARK   20  A    between atoms: _50  and  _51
REMARK   21  A    between atoms: _53  and  _55
REMARK   22  A    between atoms: _55  and  _56
REMARK   23  A    between atoms: _55  and  _58
REMARK   24  A    between atoms: _58  and  _59
REMARK   25  A    between atoms: _64  and  _66
REMARK   26  A    between atoms: _66  and  _67
REMARK   27  A    between atoms: _66  and  _69
REMARK   28  A    between atoms: _69  and  _70
REMARK   29  A    between atoms: _76  and  _78
REMARK   30  A    between atoms: _78  and  _79
REMARK   31  A    between atoms: _81  and  _83
REMARK   32  A    between atoms: _83  and  _84
REMARK   33  A    between atoms: _83  and  _86
REMARK   34  A    between atoms: _88  and  _90
REMARK   35  A    between atoms: _90  and  _91
REMARK   36  A    between atoms: _90  and  _93
REMARK   37  A    between atoms: _96  and  _98
REMARK   38  A    between atoms: _98  and  _99
REMARK   39  A    between atoms: _98  and  _101
REMARK   40  A    between atoms: _101  and  _102
REMARK   41  A    between atoms: _107  and  _108
REMARK   42  A    between atoms: _110  and  _112
REMARK   43  A    between atoms: _112  and  _113
REMARK   44  A    between atoms: _112  and  _115
REMARK   45  A    between atoms: _115  and  _116
REMARK   46  A    between atoms: _121  and  _123
REMARK   47  A    between atoms: _123  and  _124
REMARK   48  A    between atoms: _123  and  _126
REMARK   49  A    between atoms: _126  and  _127
REMARK   50  A    between atoms: _132  and  _134
REMARK   51  A    between atoms: _134  and  _135
REMARK   52  A    between atoms: _134  and  _137
REMARK   53  A    between atoms: _139  and  _141
REMARK   54  A    between atoms: _141  and  _142
REMARK   55  A    between atoms: _145  and  _147
REMARK   56  A    between atoms: _147  and  _148
REMARK   57  A    between atoms: _147  and  _150
REMARK   58  A    between atoms: _153  and  _155
REMARK   59  A    between atoms: _155  and  _156
REMARK   60  A    between atoms: _155  and  _158
REMARK   61  A    between atoms: _158  and  _159
REMARK   62  A    between atoms: _159  and  _160
REMARK   63  A    between atoms: _160  and  _161
REMARK   64  A    between atoms: _161  and  _162
REMARK   65  A    between atoms: _166  and  _168
REMARK   66  A    between atoms: _168  and  _169
REMARK   67  A    between atoms: _168  and  _171
REMARK   68  A    between atoms: _171  and  _172
REMARK   69  A    between atoms: _174  and  _176
REMARK   70  A    between atoms: _176  and  _177
REMARK   71  A    between atoms: _176  and  _179
REMARK   72  A    between atoms: _179  and  _180
REMARK   73  A    between atoms: _183  and  _185
REMARK   74  A    between atoms: _185  and  _186
REMARK   75  A    between atoms: _185  and  _188
REMARK   76  A    between atoms: _188  and  _189
REMARK   77  A    between atoms: _192  and  _194
REMARK   78  A    between atoms: _194  and  _195
REMARK   79  A    between atoms: _194  and  _197
REMARK   80  A    between atoms: _197  and  _198
REMARK   81  A    between atoms: _198  and  _199
REMARK   82  A    between atoms: _202  and  _204
REMARK   83  A    between atoms: _204  and  _205
REMARK   84  A    between atoms: _204  and  _207
REMARK   85  A    between atoms: _210  and  _212
REMARK   86  A    between atoms: _212  and  _213
REMARK   87  A    between atoms: _212  and  _215
REMARK   88  A    between atoms: _215  and  _216
REMARK   89  A    between atoms: _216  and  _217
REMARK   90  A    between atoms: _222  and  _224
REMARK   91  A    between atoms: _224  and  _225
REMARK   92  A    between atoms: _224  and  _227
REMARK   93  A    between atoms: _227  and  _228
REMARK   94  A    between atoms: _234  and  _236
REMARK   95  A    between atoms: _236  and  _237
REMARK   96  A    between atoms: _236  and  _239
REMARK   97  A    between atoms: _239  and  _240
REMARK   98  A    between atoms: _243  and  _245
REMARK   99  A    between atoms: _245  and  _246
REMARK  100  A    between atoms: _245  and  _248
REMARK  101  A    between atoms: _248  and  _249
REMARK  102  A    between atoms: _252  and  _254
REMARK  103  A    between atoms: _254  and  _255
REMARK  104  A    between atoms: _254  and  _257
REMARK  105  A    between atoms: _257  and  _258
REMARK  106  A    between atoms: _258  and  _259
REMARK  107  A    between atoms: _262  and  _264
REMARK  108  A    between atoms: _264  and  _265
REMARK  109  A    between atoms: _267  and  _269
REMARK  110  A    between atoms: _269  and  _270
REMARK  111  A    between atoms: _269  and  _272
REMARK  112  A    between atoms: _272  and  _273
REMARK  113  A    between atoms: _276  and  _278
REMARK  114  A    between atoms: _278  and  _279
REMARK  115  A    between atoms: _278  and  _281
REMARK  116  A    between atoms: _281  and  _282
REMARK  117  A    between atoms: _285  and  _287
REMARK  118  A    between atoms: _287  and  _288
REMARK  119  A    between atoms: _287  and  _290
REMARK  120  A    between atoms: _290  and  _291
REMARK  121  A    between atoms: _291  and  _292
REMARK  122  A    between atoms: _294  and  _296
REMARK  123  A    between atoms: _296  and  _297
REMARK  124  A    between atoms: _296  and  _299
REMARK  125  A    between atoms: _299  and  _300
REMARK  126  A    between atoms: _300  and  _301
REMARK  127  A    between atoms: _301  and  _302
REMARK  128  A    between atoms: _302  and  _303
REMARK  129  A    between atoms: _307  and  _309
REMARK  130  A    between atoms: _309  and  _310
REMARK  131  A    between atoms: _309  and  _312
REMARK  132  A    between atoms: _312  and  _313
REMARK  133  A    between atoms: _319  and  _321
REMARK  134  A    between atoms: _321  and  _322
REMARK  135  A    between atoms: _321  and  _324
REMARK  136  A    between atoms: _327  and  _329
REMARK  137  A    between atoms: _329  and  _330
REMARK  138  A    between atoms: _329  and  _332
REMARK  139  A    between atoms: _332  and  _333
REMARK  140  A    between atoms: _336  and  _338
REMARK  141  A    between atoms: _338  and  _339
REMARK  142  A    between atoms: _338  and  _341
REMARK  143  A    between atoms: _341  and  _342
REMARK  144  A    between atoms: _344  and  _346
REMARK  145  A    between atoms: _346  and  _347
REMARK  146  A    between atoms: _346  and  _349
REMARK  147  A    between atoms: _349  and  _350
REMARK  148  A    between atoms: _353  and  _355
REMARK  149  A    between atoms: _355  and  _356
REMARK  150  A    between atoms: _358  and  _360
REMARK  151  A    between atoms: _360  and  _361
REMARK  152  A    between atoms: _360  and  _363
REMARK  153  A    between atoms: _363  and  _364
REMARK  154  A    between atoms: _367  and  _369
REMARK  155  A    between atoms: _369  and  _370
REMARK  156  A    between atoms: _369  and  _372
REMARK  157  A    between atoms: _375  and  _376
REMARK  158  A    between atoms: _381  and  _383
REMARK  159  A    between atoms: _383  and  _384
REMARK  160  A    between atoms: _383  and  _386
REMARK  161  A    between atoms: _386  and  _387
REMARK  162  A    between atoms: _390  and  _392
REMARK  163  A    between atoms: _392  and  _393
REMARK  164  A    between atoms: _392  and  _395
REMARK  165  A    between atoms: _398  and  _400
REMARK  166  A    between atoms: _400  and  _401
REMARK  167  A    between atoms: _400  and  _403
REMARK  168  A    between atoms: _406  and  _408
REMARK  169  A    between atoms: _408  and  _409
REMARK  170  A    between atoms: _408  and  _411
REMARK  171  A    between atoms: _411  and  _412
REMARK  172  A    between atoms: _416  and  _417
REMARK  173  A    between atoms: _422  and  _424
REMARK  174  A    between atoms: _424  and  _425
REMARK  175  A    between atoms: _424  and  _427
REMARK  176  A    between atoms: _427  and  _428
REMARK  177  A    between atoms: _433  and  _434
REMARK  178  A    between atoms: _436  and  _438
REMARK  179  A    between atoms: _438  and  _439
REMARK  180  A    between atoms: _438  and  _441
REMARK  181  A    between atoms: _441  and  _442
REMARK  182  A    between atoms: _442  and  _443
REMARK  183  A    between atoms: _445  and  _447
REMARK  184  A    between atoms: _447  and  _448
REMARK  185  A    between atoms: _447  and  _450
REMARK  186  A    between atoms: _450  and  _451
REMARK  187  A    between atoms: _451  and  _452
REMARK  188  A    between atoms: _452  and  _453
REMARK  189  A    between atoms: _453  and  _454
REMARK  190  A    between atoms: _458  and  _460
REMARK  191  A    between atoms: _460  and  _461
REMARK  192  A    between atoms: _460  and  _463
REMARK  193  A    between atoms: _463  and  _464
REMARK  194  A    between atoms: _469  and  _471
REMARK  195  A    between atoms: _471  and  _472
REMARK  196  A    between atoms: _474  and  _476
REMARK  197  A    between atoms: _476  and  _477
REMARK  198  A    between atoms: _476  and  _479
REMARK  199  A    between atoms: _479  and  _480
REMARK  200  A    between atoms: _483  and  _485
REMARK  201  A    between atoms: _485  and  _486
REMARK  202  A    between atoms: _485  and  _488
REMARK  203  A    between atoms: _488  and  _489
REMARK  204  A    between atoms: _494  and  _496
REMARK  205  A    between atoms: _496  and  _497
REMARK  206  A    between atoms: _496  and  _499
REMARK  207  A    between atoms: _499  and  _500
REMARK  208  A    between atoms: _503  and  _505
REMARK  209  A    between atoms: _505  and  _506
REMARK  210  A    between atoms: _505  and  _508
REMARK  211  A    between atoms: _508  and  _509
REMARK  212  A    between atoms: _515  and  _517
REMARK  213  A    between atoms: _517  and  _518
REMARK  214  A    between atoms: _517  and  _520
REMARK  215  A    between atoms: _520  and  _521
REMARK  216  A    between atoms: _526  and  _528
REMARK  217  A    between atoms: _528  and  _529
REMARK  218  A    between atoms: _528  and  _531
REMARK  219  A    between atoms: _531  and  _532
REMARK  220  A    between atoms: _532  and  _533
REMARK  221  A    between atoms: _533  and  _534
REMARK  222  A    between atoms: _543  and  _545
REMARK  223  A    between atoms: _545  and  _546
REMARK  224  A    between atoms: _545  and  _548
REMARK  225  A    between atoms: _548  and  _549
REMARK  226  A    between atoms: _554  and  _556
REMARK  227  A    between atoms: _556  and  _557
REMARK  228  A    between atoms: _556  and  _559
REMARK  229  A    between atoms: _561  and  _563
REMARK  230  A    between atoms: _563  and  _564
REMARK  231  A    between atoms: _563  and  _566
REMARK  232  A    between atoms: _566  and  _567
REMARK  233  A    between atoms: _567  and  _568
REMARK  234  A    between atoms: _570  and  _572
REMARK  235  A    between atoms: _572  and  _573
REMARK  236  A    between atoms: _572  and  _575
REMARK  237  A    between atoms: _575  and  _576
REMARK  238  A    between atoms: _579  and  _581
REMARK  239  A    between atoms: _581  and  _582
REMARK  240  A    between atoms: _581  and  _584
REMARK  241  A    between atoms: _584  and  _585
REMARK  242  A    between atoms: _585  and  _586
REMARK  243  A    between atoms: _586  and  _587
REMARK  244  A    between atoms: _587  and  _588
REMARK  245  A    between atoms: _592  and  _594
REMARK  246  A    between atoms: _594  and  _595
REMARK  247  A    between atoms: _594  and  _597
REMARK  248  A    between atoms: _600  and  _602
REMARK  249  A    between atoms: _602  and  _603
REMARK  250  A    between atoms: _606  and  _608
REMARK  251  A    between atoms: _608  and  _609
REMARK  252  A    between atoms: _608  and  _611
REMARK  253  A    between atoms: _611  and  _612
REMARK  254  A    between atoms: _615  and  _617
REMARK  255  A    between atoms: _617  and  _618
REMARK  256  A    between atoms: _617  and  _620
REMARK  257  A    between atoms: _620  and  _621
REMARK  258  A    between atoms: _627  and  _629
REMARK  259  A    between atoms: _629  and  _630
REMARK                            x       y       z     vdW  Elec       q    Type
REMARK                         _______ _______ _______ _____ _____    ______ ____
ROOT
ATOM      1  CB  HIS A   1      19.442  -8.479 -12.805  0.00  0.00    +0.072 C 
ENDROOT
BRANCH   1   2
ATOM      2  CG  HIS A   1      19.313  -7.304 -13.723  0.00  0.00    +0.082 A 
ATOM      3  ND1 HIS A   1      18.472  -6.242 -13.466  0.00  0.00    -0.227 NA
ATOM      4  CE1 HIS A   1      18.568  -5.361 -14.444  0.00  0.00    +0.199 A 
ATOM      5  NE2 HIS A   1      19.441  -5.813 -15.325  0.00  0.00    -0.221 NA
ATOM      6  CD2 HIS A   1      19.924  -7.024 -14.896  0.00  0.00    +0.115 A 
ENDBRANCH   1   2
BRANCH   1   7
ATOM      7  CA  HIS A   1      19.824  -8.095 -11.371  0.00  0.00    +0.139 C 
BRANCH   7   8
ATOM      8  N   HIS A   1      20.158  -9.274 -10.571  0.00  0.00    -0.239 NA
ATOM      9  H   HIS A   1      19.872 -10.216 -10.907  0.00  0.00    +0.142 HD
ENDBRANCH   7   8
BRANCH   7  10
ATOM     10  C   HIS A   1      18.719  -7.254 -10.744  0.00  0.00    +0.224 C 
ATOM     11  O   HIS A   1      18.883  -6.044 -10.574  0.00  0.00    -0.287 OA
ENDBRANCH   7  10
ENDBRANCH   1   7
TORSDOF 4
REMARK  Name = ../refined-set-2016/3u6h/3u6h_pocket.pdb
REMARK  259 active torsions:
REMARK  status: ('A' for Active; 'I' for Inactive)
REMARK    1  A    between atoms: _1  and  _3
REMARK    2  A    between atoms: _3  and  _4
REMARK    3  A    between atoms: _3  and  _6
REMARK    4  A    between atoms: _9  and  _11
REMARK    5  A    between atoms: _11  and  _12
REMARK    6  A    between atoms: _11  and  _14
REMARK    7  A    between atoms: _17  and  _19
REMARK    8  A    between atoms: _19  and  _20
REMARK    9  A    between atoms: _19  and  _22
REMARK   10  A    between atoms: _22  and  _23
REMARK   11  A    between atoms: _26  and  _28
REMARK   12  A    between atoms: _28  and  _29
REMARK   13  A    between atoms: _31  and  _33
REMARK   14  A    between atoms: _33  and  _34
REMARK   15  A    between atoms: _33  and  _36
REMARK   16  A    between atoms: _36  and  _37
REMARK   17  A    between atoms: _37  and  _38
REMARK   18  A    between atoms: _38  and  _39
REMARK   19  A    between atoms: _48  and  _50
REMARK   20  A    between atoms: _50  and  _51
REMARK   21  A    between atoms: _53  and  _55
REMARK   22  A    between atoms: _55  and  _56
REMARK   23  A    between atoms: _55  and  _58
REMARK   24  A    between atoms: _58  and  _59
REMARK   25  A    between atoms: _64  and  _66
REMARK   26  A    between atoms: _66  and  _67
REMARK   27  A    between atoms: _66  and  _69
REMARK   28  A    between atoms: _69  and  _70
REMARK   29  A    between atoms: _76  and  _78
REMARK   30  A    between atoms: _78  and  _79
REMARK   31  A    between atoms: _81  and  _83
REMARK   32  A    between atoms: _83  and  _84
REMARK   33  A    between atoms: _83  and  _86
REMARK   34  A    between atoms: _88  and  _90
REMARK   35  A    between atoms: _90  and  _91
REMARK   36  A    between atoms: _90  and  _93
REMARK   37  A    between atoms: _96  and  _98
REMARK   38  A    between atoms: _98  and  _99
REMARK   39  A    between atoms: _98  and  _101
REMARK   40  A    between atoms: _101  and  _102
REMARK   41  A    between atoms: _107  and  _108
REMARK   42  A    between atoms: _110  and  _112
REMARK   43  A    between atoms: _112  and  _113
REMARK   44  A    between atoms: _112  and  _115
REMARK   45  A    between atoms: _115  and  _116
REMARK   46  A    between atoms: _121  and  _123
REMARK   47  A    between atoms: _123  and  _124
REMARK   48  A    between atoms: _123  and  _126
REMARK   49  A    between atoms: _126  and  _127
REMARK   50  A    between atoms: _132  and  _134
REMARK   51  A    between atoms: _134  and  _135
REMARK   52  A    between atoms: _134  and  _137
REMARK   53  A    between atoms: _139  and  _141
REMARK   54  A    between atoms: _141  and  _142
REMARK   55  A    between atoms: _145  and  _147
REMARK   56  A    between atoms: _147  and  _148
REMARK   57  A    between atoms: _147  and  _150
REMARK   58  A    between atoms: _153  and  _155
REMARK   59  A    between atoms: _155  and  _156
REMARK   60  A    between atoms: _155  and  _158
REMARK   61  A    between atoms: _158  and  _159
REMARK   62  A    between atoms: _159  and  _160
REMARK   63  A    between atoms: _160  and  _161
REMARK   64  A    between atoms: _161  and  _162
REMARK   65  A    between atoms: _166  and  _168
REMARK   66  A    between atoms: _168  and  _169
REMARK   67  A    between atoms: _168  and  _171
REMARK   68  A    between atoms: _171  and  _172
REMARK   69  A    between atoms: _174  and  _176
REMARK   70  A    between atoms: _176  and  _177
REMARK   71  A    between atoms: _176  and  _179
REMARK   72  A    between atoms: _179  and  _180
REMARK   73  A    between atoms: _183  and  _185
REMARK   74  A    between atoms: _185  and  _186
REMARK   75  A    between atoms: _185  and  _188
REMARK   76  A    between atoms: _188  and  _189
REMARK   77  A    between atoms: _192  and  _194
REMARK   78  A    between atoms: _194  and  _195
REMARK   79  A    between atoms: _194  and  _197
REMARK   80  A    between atoms: _197  and  _198
REMARK   81  A    between atoms: _198  and  _199
REMARK   82  A    between atoms: _202  and  _204
REMARK   83  A    between atoms: _204  and  _205
REMARK   84  A    between atoms: _204  and  _207
REMARK   85  A    between atoms: _210  and  _212
REMARK   86  A    between atoms: _212  and  _213
REMARK   87  A    between atoms: _212  and  _215
REMARK   88  A    between atoms: _215  and  _216
REMARK   89  A    between atoms: _216  and  _217
REMARK   90  A    between atoms: _222  and  _224
REMARK   91  A    between atoms: _224  and  _225
REMARK   92  A    between atoms: _224  and  _227
REMARK   93  A    between atoms: _227  and  _228
REMARK   94  A    between atoms: _234  and  _236
REMARK   95  A    between atoms: _236  and  _237
REMARK   96  A    between atoms: _236  and  _239
REMARK   97  A    between atoms: _239  and  _240
REMARK   98  A    between atoms: _243  and  _245
REMARK   99  A    between atoms: _245  and  _246
REMARK  100  A    between atoms: _245  and  _248
REMARK  101  A    between atoms: _248  and  _249
REMARK  102  A    between atoms: _252  and  _254
REMARK  103  A    between atoms: _254  and  _255
REMARK  104  A    between atoms: _254  and  _257
REMARK  105  A    between atoms: _257  and  _258
REMARK  106  A    between atoms: _258  and  _259
REMARK  107  A    between atoms: _262  and  _264
REMARK  108  A    between atoms: _264  and  _265
REMARK  109  A    between atoms: _267  and  _269
REMARK  110  A    between atoms: _269  and  _270
REMARK  111  A    between atoms: _269  and  _272
REMARK  112  A    between atoms: _272  and  _273
REMARK  113  A    between atoms: _276  and  _278
REMARK  114  A    between atoms: _278  and  _279
REMARK  115  A    between atoms: _278  and  _281
REMARK  116  A    between atoms: _281  and  _282
REMARK  117  A    between atoms: _285  and  _287
REMARK  118  A    between atoms: _287  and  _288
REMARK  119  A    between atoms: _287  and  _290
REMARK  120  A    between atoms: _290  and  _291
REMARK  121  A    between atoms: _291  and  _292
REMARK  122  A    between atoms: _294  and  _296
REMARK  123  A    between atoms: _296  and  _297
REMARK  124  A    between atoms: _296  and  _299
REMARK  125  A    between atoms: _299  and  _300
REMARK  126  A    between atoms: _300  and  _301
REMARK  127  A    between atoms: _301  and  _302
REMARK  128  A    between atoms: _302  and  _303
REMARK  129  A    between atoms: _307  and  _309
REMARK  130  A    between atoms: _309  and  _310
REMARK  131  A    between atoms: _309  and  _312
REMARK  132  A    between atoms: _312  and  _313
REMARK  133  A    between atoms: _319  and  _321
REMARK  134  A    between atoms: _321  and  _322
REMARK  135  A    between atoms: _321  and  _324
REMARK  136  A    between atoms: _327  and  _329
REMARK  137  A    between atoms: _329  and  _330
REMARK  138  A    between atoms: _329  and  _332
REMARK  139  A    between atoms: _332  and  _333
REMARK  140  A    between atoms: _336  and  _338
REMARK  141  A    between atoms: _338  and  _339
REMARK  142  A    between atoms: _338  and  _341
REMARK  143  A    between atoms: _341  and  _342
REMARK  144  A    between atoms: _344  and  _346
REMARK  145  A    between atoms: _346  and  _347
REMARK  146  A    between atoms: _346  and  _349
REMARK  147  A    between atoms: _349  and  _350
REMARK  148  A    between atoms: _353  and  _355
REMARK  149  A    between atoms: _355  and  _356
REMARK  150  A    between atoms: _358  and  _360
REMARK  151  A    between atoms: _360  and  _361
REMARK  152  A    between atoms: _360  and  _363
REMARK  153  A    between atoms: _363  and  _364
REMARK  154  A    between atoms: _367  and  _369
REMARK  155  A    between atoms: _369  and  _370
REMARK  156  A    between atoms: _369  and  _372
REMARK  157  A    between atoms: _375  and  _376
REMARK  158  A    between atoms: _381  and  _383
REMARK  159  A    between atoms: _383  and  _384
REMARK  160  A    between atoms: _383  and  _386
REMARK  161  A    between atoms: _386  and  _387
REMARK  162  A    between atoms: _390  and  _392
REMARK  163  A    between atoms: _392  and  _393
REMARK  164  A    between atoms: _392  and  _395
REMARK  165  A    between atoms: _398  and  _400
REMARK  166  A    between atoms: _400  and  _401
REMARK  167  A    between atoms: _400  and  _403
REMARK  168  A    between atoms: _406  and  _408
REMARK  169  A    between atoms: _408  and  _409
REMARK  170  A    between atoms: _408  and  _411
REMARK  171  A    between atoms: _411  and  _412
REMARK  172  A    between atoms: _416  and  _417
REMARK  173  A    between atoms: _422  and  _424
REMARK  174  A    between atoms: _424  and  _425
REMARK  175  A    between atoms: _424  and  _427
REMARK  176  A    between atoms: _427  and  _428
REMARK  177  A    between atoms: _433  and  _434
REMARK  178  A    between atoms: _436  and  _438
REMARK  179  A    between atoms: _438  and  _439
REMARK  180  A    between atoms: _438  and  _441
REMARK  181  A    between atoms: _441  and  _442
REMARK  182  A    between atoms: _442  and  _443
REMARK  183  A    between atoms: _445  and  _447
REMARK  184  A    between atoms: _447  and  _448
REMARK  185  A    between atoms: _447  and  _450
REMARK  186  A    between atoms: _450  and  _451
REMARK  187  A    between atoms: _451  and  _452
REMARK  188  A    between atoms: _452  and  _453
REMARK  189  A    between atoms: _453  and  _454
REMARK  190  A    between atoms: _458  and  _460
REMARK  191  A    between atoms: _460  and  _461
REMARK  192  A    between atoms: _460  and  _463
REMARK  193  A    between atoms: _463  and  _464
REMARK  194  A    between atoms: _469  and  _471
REMARK  195  A    between atoms: _471  and  _472
REMARK  196  A    between atoms: _474  and  _476
REMARK  197  A    between atoms: _476  and  _477
REMARK  198  A    between atoms: _476  and  _479
REMARK  199  A    between atoms: _479  and  _480
REMARK  200  A    between atoms: _483  and  _485
REMARK  201  A    between atoms: _485  and  _486
REMARK  202  A    between atoms: _485  and  _488
REMARK  203  A    between atoms: _488  and  _489
REMARK  204  A    between atoms: _494  and  _496
REMARK  205  A    between atoms: _496  and  _497
REMARK  206  A    between atoms: _496  and  _499
REMARK  207  A    between atoms: _499  and  _500
REMARK  208  A    between atoms: _503  and  _505
REMARK  209  A    between atoms: _505  and  _506
REMARK  210  A    between atoms: _505  and  _508
REMARK  211  A    between atoms: _508  and  _509
REMARK  212  A    between atoms: _515  and  _517
REMARK  213  A    between atoms: _517  and  _518
REMARK  214  A    between atoms: _517  and  _520
REMARK  215  A    between atoms: _520  and  _521
REMARK  216  A    between atoms: _526  and  _528
REMARK  217  A    between atoms: _528  and  _529
REMARK  218  A    between atoms: _528  and  _531
REMARK  219  A    between atoms: _531  and  _532
REMARK  220  A    between atoms: _532  and  _533
REMARK  221  A    between atoms: _533  and  _534
REMARK  222  A    between atoms: _543  and  _545
REMARK  223  A    between atoms: _545  and  _546
REMARK  224  A    between atoms: _545  and  _548
REMARK  225  A    between atoms: _548  and  _549
REMARK  226  A    between atoms: _554  and  _556
REMARK  227  A    between atoms: _556  and  _557
REMARK  228  A    between atoms: _556  and  _559
REMARK  229  A    between atoms: _561  and  _563
REMARK  230  A    between atoms: _563  and  _564
REMARK  231  A    between atoms: _563  and  _566
REMARK  232  A    between atoms: _566  and  _567
REMARK  233  A    between atoms: _567  and  _568
REMARK  234  A    between atoms: _570  and  _572
REMARK  235  A    between atoms: _572  and  _573
REMARK  236  A    between atoms: _572  and  _575
REMARK  237  A    between atoms: _575  and  _576
REMARK  238  A    between atoms: _579  and  _581
REMARK  239  A    between atoms: _581  and  _582
REMARK  240  A    between atoms: _581  and  _584
REMARK  241  A    between atoms: _584  and  _585
REMARK  242  A    between atoms: _585  and  _586
REMARK  243  A    between atoms: _586  and  _587
REMARK  244  A    between atoms: _587  and  _588
REMARK  245  A    between atoms: _592  and  _594
REMARK  246  A    between atoms: _594  and  _595
REMARK  247  A    between atoms: _594  and  _597
REMARK  248  A    between atoms: _600  and  _602
REMARK  249  A    between atoms: _602  and  _603
REMARK  250  A    between atoms: _606  and  _608
REMARK  251  A    between atoms: _608  and  _609
REMARK  252  A    between atoms: _608  and  _611
REMARK  253  A    between atoms: _611  and  _612
REMARK  254  A    between atoms: _615  and  _617
REMARK  255  A    between atoms: _617  and  _618
REMARK  256  A    between atoms: _617  and  _620
REMARK  257  A    between atoms: _620  and  _621
REMARK  258  A    between atoms: _627  and  _629
REMARK  259  A    between atoms: _629  and  _630
REMARK                            x       y       z     vdW  Elec       q    Type
REMARK                         _______ _______ _______ _____ _____    ______ ____
ROOT
ATOM      1  C   ASN A   2      17.832  -2.543 -19.950  0.00  0.00    +0.241 C 
ATOM      2  O   ASN A   2      18.924  -2.557 -19.393  0.00  0.00    -0.273 OA
ATOM      3  N   CYS A   3      17.638  -3.029 -21.164  0.00  0.00    -0.296 N 
ATOM      4  H   CYS A   3      16.674  -3.026 -21.555  0.00  0.00    +0.150 HD
ENDROOT
BRANCH   3   5
ATOM      5  CA  CYS A   3      18.718  -3.567 -21.973  0.00  0.00    +0.160 C 
BRANCH   5   6
ATOM      6  C   CYS A   3      19.016  -2.545 -23.060  0.00  0.00    +0.242 C 
ATOM      7  N   MET A   4      20.303  -2.308 -23.301  0.00  0.00    -0.297 N 
ATOM      8  H   MET A   4      21.020  -2.870 -22.799  0.00  0.00    +0.150 HD
ATOM      9  O   CYS A   3      18.093  -1.976 -23.653  0.00  0.00    -0.273 OA
BRANCH   7  10
ATOM     10  CA  MET A   4      20.744  -1.286 -24.247  0.00  0.00    +0.149 C 
BRANCH  10  11
ATOM     11  C   MET A   4      21.218  -1.908 -25.544  0.00  0.00    +0.241 C 
ATOM     12  O   MET A   4      21.630  -3.067 -25.567  0.00  0.00    -0.273 OA
ATOM     13  N   LEU A   5      21.178  -1.126 -26.620  0.00  0.00    -0.298 N 
ATOM     14  H   LEU A   5      20.813  -0.156 -26.529  0.00  0.00    +0.150 HD
BRANCH  13  15
ATOM     15  CA  LEU A   5      21.632  -1.594 -27.921  0.00  0.00    +0.137 C 
BRANCH  15  16
ATOM     16  C   LEU A   5      22.649  -0.622 -28.514  0.00  0.00    +0.227 C 
ATOM     17  O   LEU A   5      22.336   0.558 -28.706  0.00  0.00    -0.286 OA
ENDBRANCH  15  16
BRANCH  15  18
ATOM     18  CB  LEU A   5      20.439  -1.779 -28.866  0.00  0.00    +0.028 C 
BRANCH  18  19
ATOM     19  CG  LEU A   5      20.624  -2.730 -30.052  0.00  0.00    +0.002 C 
ATOM     20  CD2 LEU A   5      20.848  -4.141 -29.566  0.00  0.00    +0.000 C 
ATOM     21  CD1 LEU A   5      19.415  -2.679 -30.984  0.00  0.00    +0.000 C 
ENDBRANCH  18  19
ENDBRANCH  15  18
ENDBRANCH  13  15
ENDBRANCH  10  11
BRANCH  10  22
ATOM     22  CB  MET A   4      21.886  -0.442 -23.651  0.00  0.00    +0.041 C 
BRANCH  22  23
ATOM     23  CG  MET A   4      21.626   0.147 -22.254  0.00  0.00    +0.060 C 
BRANCH  23  24
ATOM     24  SD  MET A   4      20.057   0.997 -22.039  0.00  0.00    -0.139 S 
ATOM     25  CE  MET A   4      20.258   2.401 -23.130  0.00  0.00    +0.069 C 
ENDBRANCH  23  24
ENDBRANCH  22  23
ENDBRANCH  10  22
ENDBRANCH   7  10
ENDBRANCH   5   6
BRANCH   5  26
ATOM     26  CB  CYS A   3      18.304  -4.906 -22.586  0.00  0.00    +0.098 C 
ATOM     27  SG  CYS A   3      17.895  -6.182 -21.357  0.00  0.00    -0.080 S 
ENDBRANCH   5  26
ENDBRANCH   3   5
BRANCH   1  28
ATOM     28  CA  ASN A   2      16.609  -1.941 -19.269  0.00  0.00    +0.158 C 
BRANCH  28  30
ATOM     29  C   ARG A   1      14.812  -1.121 -20.743  0.00  0.00    +0.238 C 
ATOM     30  N   ASN A   2      15.352  -2.103 -20.017  0.00  0.00    -0.297 N 
ATOM     31  H   ASN A   2      14.864  -3.021 -19.979  0.00  0.00    +0.150 HD
ATOM     32  O   ARG A   1      15.350  -0.029 -20.902  0.00  0.00    -0.274 OA
BRANCH  29  33
ATOM     33  CA  ARG A   1      13.452  -1.403 -21.388  0.00  0.00    +0.145 C 
BRANCH  33  34
ATOM     34  N   ARG A   1      13.185  -2.839 -21.560  0.00  0.00    -0.238 NA
ATOM     35  H   ARG A   1      12.350  -3.248 -21.095  0.00  0.00    +0.142 HD
ENDBRANCH  33  34
BRANCH  33  36
ATOM     36  CB  ARG A   1      12.357  -0.741 -20.551  0.00  0.00    +0.030 C 
BRANCH  36  37
ATOM     37  CG  ARG A   1      12.425  -1.111 -19.077  0.00  0.00    +0.045 C 
BRANCH  37  38
ATOM     38  CD  ARG A   1      11.380  -0.402 -18.231  0.00  0.00    +0.174 C 
BRANCH  38  39
ATOM     39  NE  ARG A   1      11.303  -1.020 -16.903  0.00  0.00    -0.265 N 
ATOM     40  HE  ARG A   1      11.941  -0.659 -16.165  0.00  0.00    +0.259 HD
ATOM     41  CZ  ARG A   1      10.474  -2.012 -16.573  0.00  0.00    +0.342 C 
ATOM     42  NH2 ARG A   1      10.498  -2.503 -15.342  0.00  0.00    -0.292 N 
ATOM     43 HH21 ARG A   1      11.160  -2.115 -14.640  0.00  0.00    +0.255 HD
ATOM     44 HH22 ARG A   1       9.855  -3.276 -15.078  0.00  0.00    +0.255 HD
ATOM     45  NH1 ARG A   1       9.616  -2.515 -17.463  0.00  0.00    -0.292 N 
ATOM     46 HH11 ARG A   1       8.977  -3.288 -17.189  0.00  0.00    +0.255 HD
ATOM     47 HH12 ARG A   1       9.587  -2.134 -18.430  0.00  0.00    +0.255 HD
ENDBRANCH  38  39
ENDBRANCH  37  38
ENDBRANCH  36  37
ENDBRANCH  33  36
ENDBRANCH  29  33
ENDBRANCH  28  30
BRANCH  28  48
ATOM     48  CB  ASN A   2      16.459  -2.483 -17.839  0.00  0.00    +0.114 C 
BRANCH  48  49
ATOM     49  CG  ASN A   2      15.615  -1.576 -16.961  0.00  0.00    +0.222 C 
ATOM     50  ND2 ASN A   2      14.857  -2.169 -16.045  0.00  0.00    -0.329 N 
ATOM     51 HD21 ASN A   2      14.256  -1.597 -15.418  0.00  0.00    +0.145 HD
ATOM     52 HD22 ASN A   2      14.865  -3.205 -15.955  0.00  0.00    +0.145 HD
ATOM     53  OD1 ASN A   2      15.642  -0.354 -17.109  0.00  0.00    -0.275 OA
ENDBRANCH  48  49
ENDBRANCH  28  48
ENDBRANCH   1  28
TORSDOF 22
REMARK  Name = ../refined-set-2016/3u6h/3u6h_pocket.pdb
REMARK  259 active torsions:
REMARK  status: ('A' for Active; 'I' for Inactive)
REMARK    1  A    between atoms: _1  and  _3
REMARK    2  A    between atoms: _3  and  _4
REMARK    3  A    between atoms: _3  and  _6
REMARK    4  A    between atoms: _9  and  _11
REMARK    5  A    between atoms: _11  and  _12
REMARK    6  A    between atoms: _11  and  _14
REMARK    7  A    between atoms: _17  and  _19
REMARK    8  A    between atoms: _19  and  _20
REMARK    9  A    between atoms: _19  and  _22
REMARK   10  A    between atoms: _22  and  _23
REMARK   11  A    between atoms: _26  and  _28
REMARK   12  A    between atoms: _28  and  _29
REMARK   13  A    between atoms: _31  and  _33
REMARK   14  A    between atoms: _33  and  _34
REMARK   15  A    between atoms: _33  and  _36
REMARK   16  A    between atoms: _36  and  _37
REMARK   17  A    between atoms: _37  and  _38
REMARK   18  A    between atoms: _38  and  _39
REMARK   19  A    between atoms: _48  and  _50
REMARK   20  A    between atoms: _50  and  _51
REMARK   21  A    between atoms: _53  and  _55
REMARK   22  A    between atoms: _55  and  _56
REMARK   23  A    between atoms: _55  and  _58
REMARK   24  A    between atoms: _58  and  _59
REMARK   25  A    between atoms: _64  and  _66
REMARK   26  A    between atoms: _66  and  _67
REMARK   27  A    between atoms: _66  and  _69
REMARK   28  A    between atoms: _69  and  _70
REMARK   29  A    between atoms: _76  and  _78
REMARK   30  A    between atoms: _78  and  _79
REMARK   31  A    between atoms: _81  and  _83
REMARK   32  A    between atoms: _83  and  _84
REMARK   33  A    between atoms: _83  and  _86
REMARK   34  A    between atoms: _88  and  _90
REMARK   35  A    between atoms: _90  and  _91
REMARK   36  A    between atoms: _90  and  _93
REMARK   37  A    between atoms: _96  and  _98
REMARK   38  A    between atoms: _98  and  _99
REMARK   39  A    between atoms: _98  and  _101
REMARK   40  A    between atoms: _101  and  _102
REMARK   41  A    between atoms: _107  and  _108
REMARK   42  A    between atoms: _110  and  _112
REMARK   43  A    between atoms: _112  and  _113
REMARK   44  A    between atoms: _112  and  _115
REMARK   45  A    between atoms: _115  and  _116
REMARK   46  A    between atoms: _121  and  _123
REMARK   47  A    between atoms: _123  and  _124
REMARK   48  A    between atoms: _123  and  _126
REMARK   49  A    between atoms: _126  and  _127
REMARK   50  A    between atoms: _132  and  _134
REMARK   51  A    between atoms: _134  and  _135
REMARK   52  A    between atoms: _134  and  _137
REMARK   53  A    between atoms: _139  and  _141
REMARK   54  A    between atoms: _141  and  _142
REMARK   55  A    between atoms: _145  and  _147
REMARK   56  A    between atoms: _147  and  _148
REMARK   57  A    between atoms: _147  and  _150
REMARK   58  A    between atoms: _153  and  _155
REMARK   59  A    between atoms: _155  and  _156
REMARK   60  A    between atoms: _155  and  _158
REMARK   61  A    between atoms: _158  and  _159
REMARK   62  A    between atoms: _159  and  _160
REMARK   63  A    between atoms: _160  and  _161
REMARK   64  A    between atoms: _161  and  _162
REMARK   65  A    between atoms: _166  and  _168
REMARK   66  A    between atoms: _168  and  _169
REMARK   67  A    between atoms: _168  and  _171
REMARK   68  A    between atoms: _171  and  _172
REMARK   69  A    between atoms: _174  and  _176
REMARK   70  A    between atoms: _176  and  _177
REMARK   71  A    between atoms: _176  and  _179
REMARK   72  A    between atoms: _179  and  _180
REMARK   73  A    between atoms: _183  and  _185
REMARK   74  A    between atoms: _185  and  _186
REMARK   75  A    between atoms: _185  and  _188
REMARK   76  A    between atoms: _188  and  _189
REMARK   77  A    between atoms: _192  and  _194
REMARK   78  A    between atoms: _194  and  _195
REMARK   79  A    between atoms: _194  and  _197
REMARK   80  A    between atoms: _197  and  _198
REMARK   81  A    between atoms: _198  and  _199
REMARK   82  A    between atoms: _202  and  _204
REMARK   83  A    between atoms: _204  and  _205
REMARK   84  A    between atoms: _204  and  _207
REMARK   85  A    between atoms: _210  and  _212
REMARK   86  A    between atoms: _212  and  _213
REMARK   87  A    between atoms: _212  and  _215
REMARK   88  A    between atoms: _215  and  _216
REMARK   89  A    between atoms: _216  and  _217
REMARK   90  A    between atoms: _222  and  _224
REMARK   91  A    between atoms: _224  and  _225
REMARK   92  A    between atoms: _224  and  _227
REMARK   93  A    between atoms: _227  and  _228
REMARK   94  A    between atoms: _234  and  _236
REMARK   95  A    between atoms: _236  and  _237
REMARK   96  A    between atoms: _236  and  _239
REMARK   97  A    between atoms: _239  and  _240
REMARK   98  A    between atoms: _243  and  _245
REMARK   99  A    between atoms: _245  and  _246
REMARK  100  A    between atoms: _245  and  _248
REMARK  101  A    between atoms: _248  and  _249
REMARK  102  A    between atoms: _252  and  _254
REMARK  103  A    between atoms: _254  and  _255
REMARK  104  A    between atoms: _254  and  _257
REMARK  105  A    between atoms: _257  and  _258
REMARK  106  A    between atoms: _258  and  _259
REMARK  107  A    between atoms: _262  and  _264
REMARK  108  A    between atoms: _264  and  _265
REMARK  109  A    between atoms: _267  and  _269
REMARK  110  A    between atoms: _269  and  _270
REMARK  111  A    between atoms: _269  and  _272
REMARK  112  A    between atoms: _272  and  _273
REMARK  113  A    between atoms: _276  and  _278
REMARK  114  A    between atoms: _278  and  _279
REMARK  115  A    between atoms: _278  and  _281
REMARK  116  A    between atoms: _281  and  _282
REMARK  117  A    between atoms: _285  and  _287
REMARK  118  A    between atoms: _287  and  _288
REMARK  119  A    between atoms: _287  and  _290
REMARK  120  A    between atoms: _290  and  _291
REMARK  121  A    between atoms: _291  and  _292
REMARK  122  A    between atoms: _294  and  _296
REMARK  123  A    between atoms: _296  and  _297
REMARK  124  A    between atoms: _296  and  _299
REMARK  125  A    between atoms: _299  and  _300
REMARK  126  A    between atoms: _300  and  _301
REMARK  127  A    between atoms: _301  and  _302
REMARK  128  A    between atoms: _302  and  _303
REMARK  129  A    between atoms: _307  and  _309
REMARK  130  A    between atoms: _309  and  _310
REMARK  131  A    between atoms: _309  and  _312
REMARK  132  A    between atoms: _312  and  _313
REMARK  133  A    between atoms: _319  and  _321
REMARK  134  A    between atoms: _321  and  _322
REMARK  135  A    between atoms: _321  and  _324
REMARK  136  A    between atoms: _327  and  _329
REMARK  137  A    between atoms: _329  and  _330
REMARK  138  A    between atoms: _329  and  _332
REMARK  139  A    between atoms: _332  and  _333
REMARK  140  A    between atoms: _336  and  _338
REMARK  141  A    between atoms: _338  and  _339
REMARK  142  A    between atoms: _338  and  _341
REMARK  143  A    between atoms: _341  and  _342
REMARK  144  A    between atoms: _344  and  _346
REMARK  145  A    between atoms: _346  and  _347
REMARK  146  A    between atoms: _346  and  _349
REMARK  147  A    between atoms: _349  and  _350
REMARK  148  A    between atoms: _353  and  _355
REMARK  149  A    between atoms: _355  and  _356
REMARK  150  A    between atoms: _358  and  _360
REMARK  151  A    between atoms: _360  and  _361
REMARK  152  A    between atoms: _360  and  _363
REMARK  153  A    between atoms: _363  and  _364
REMARK  154  A    between atoms: _367  and  _369
REMARK  155  A    between atoms: _369  and  _370
REMARK  156  A    between atoms: _369  and  _372
REMARK  157  A    between atoms: _375  and  _376
REMARK  158  A    between atoms: _381  and  _383
REMARK  159  A    between atoms: _383  and  _384
REMARK  160  A    between atoms: _383  and  _386
REMARK  161  A    between atoms: _386  and  _387
REMARK  162  A    between atoms: _390  and  _392
REMARK  163  A    between atoms: _392  and  _393
REMARK  164  A    between atoms: _392  and  _395
REMARK  165  A    between atoms: _398  and  _400
REMARK  166  A    between atoms: _400  and  _401
REMARK  167  A    between atoms: _400  and  _403
REMARK  168  A    between atoms: _406  and  _408
REMARK  169  A    between atoms: _408  and  _409
REMARK  170  A    between atoms: _408  and  _411
REMARK  171  A    between atoms: _411  and  _412
REMARK  172  A    between atoms: _416  and  _417
REMARK  173  A    between atoms: _422  and  _424
REMARK  174  A    between atoms: _424  and  _425
REMARK  175  A    between atoms: _424  and  _427
REMARK  176  A    between atoms: _427  and  _428
REMARK  177  A    between atoms: _433  and  _434
REMARK  178  A    between atoms: _436  and  _438
REMARK  179  A    between atoms: _438  and  _439
REMARK  180  A    between atoms: _438  and  _441
REMARK  181  A    between atoms: _441  and  _442
REMARK  182  A    between atoms: _442  and  _443
REMARK  183  A    between atoms: _445  and  _447
REMARK  184  A    between atoms: _447  and  _448
REMARK  185  A    between atoms: _447  and  _450
REMARK  186  A    between atoms: _450  and  _451
REMARK  187  A    between atoms: _451  and  _452
REMARK  188  A    between atoms: _452  and  _453
REMARK  189  A    between atoms: _453  and  _454
REMARK  190  A    between atoms: _458  and  _460
REMARK  191  A    between atoms: _460  and  _461
REMARK  192  A    between atoms: _460  and  _463
REMARK  193  A    between atoms: _463  and  _464
REMARK  194  A    between atoms: _469  and  _471
REMARK  195  A    between atoms: _471  and  _472
REMARK  196  A    between atoms: _474  and  _476
REMARK  197  A    between atoms: _476  and  _477
REMARK  198  A    between atoms: _476  and  _479
REMARK  199  A    between atoms: _479  and  _480
REMARK  200  A    between atoms: _483  and  _485
REMARK  201  A    between atoms: _485  and  _486
REMARK  202  A    between atoms: _485  and  _488
REMARK  203  A    between atoms: _488  and  _489
REMARK  204  A    between atoms: _494  and  _496
REMARK  205  A    between atoms: _496  and  _497
REMARK  206  A    between atoms: _496  and  _499
REMARK  207  A    between atoms: _499  and  _500
REMARK  208  A    between atoms: _503  and  _505
REMARK  209  A    between atoms: _505  and  _506
REMARK  210  A    between atoms: _505  and  _508
REMARK  211  A    between atoms: _508  and  _509
REMARK  212  A    between atoms: _515  and  _517
REMARK  213  A    between atoms: _517  and  _518
REMARK  214  A    between atoms: _517  and  _520
REMARK  215  A    between atoms: _520  and  _521
REMARK  216  A    between atoms: _526  and  _528
REMARK  217  A    between atoms: _528  and  _529
REMARK  218  A    between atoms: _528  and  _531
REMARK  219  A    between atoms: _531  and  _532
REMARK  220  A    between atoms: _532  and  _533
REMARK  221  A    between atoms: _533  and  _534
REMARK  222  A    between atoms: _543  and  _545
REMARK  223  A    between atoms: _545  and  _546
REMARK  224  A    between atoms: _545  and  _548
REMARK  225  A    between atoms: _548  and  _549
REMARK  226  A    between atoms: _554  and  _556
REMARK  227  A    between atoms: _556  and  _557
REMARK  228  A    between atoms: _556  and  _559
REMARK  229  A    between atoms: _561  and  _563
REMARK  230  A    between atoms: _563  and  _564
REMARK  231  A    between atoms: _563  and  _566
REMARK  232  A    between atoms: _566  and  _567
REMARK  233  A    between atoms: _567  and  _568
REMARK  234  A    between atoms: _570  and  _572
REMARK  235  A    between atoms: _572  and  _573
REMARK  236  A    between atoms: _572  and  _575
REMARK  237  A    between atoms: _575  and  _576
REMARK  238  A    between atoms: _579  and  _581
REMARK  239  A    between atoms: _581  and  _582
REMARK  240  A    between atoms: _581  and  _584
REMARK  241  A    between atoms: _584  and  _585
REMARK  242  A    between atoms: _585  and  _586
REMARK  243  A    between atoms: _586  and  _587
REMARK  244  A    between atoms: _587  and  _588
REMARK  245  A    between atoms: _592  and  _594
REMARK  246  A    between atoms: _594  and  _595
REMARK  247  A    between atoms: _594  and  _597
REMARK  248  A    between atoms: _600  and  _602
REMARK  249  A    between atoms: _602  and  _603
REMARK  250  A    between atoms: _606  and  _608
REMARK  251  A    between atoms: _608  and  _609
REMARK  252  A    between atoms: _608  and  _611
REMARK  253  A    between atoms: _611  and  _612
REMARK  254  A    between atoms: _615  and  _617
REMARK  255  A    between atoms: _617  and  _618
REMARK  256  A    between atoms: _617  and  _620
REMARK  257  A    between atoms: _620  and  _621
REMARK  258  A    between atoms: _627  and  _629
REMARK  259  A    between atoms: _629  and  _630
REMARK                            x       y       z     vdW  Elec       q    Type
REMARK                         _______ _______ _______ _____ _____    ______ ____
ROOT
ATOM      1  C   ALA A   3      20.834  -2.411 -16.647  0.00  0.00    +0.241 C 
ATOM      2  N   ASP A   4      21.017  -1.352 -15.858  0.00  0.00    -0.297 N 
ATOM      3  H   ASP A   4      21.830  -0.732 -16.047  0.00  0.00    +0.150 HD
ATOM      4  O   ALA A   3      19.885  -3.194 -16.528  0.00  0.00    -0.273 OA
ENDROOT
BRANCH   1   5
ATOM      5  CA  ALA A   3      21.872  -2.600 -17.746  0.00  0.00    +0.149 C 
ATOM      6  CB  ALA A   3      21.945  -1.347 -18.631  0.00  0.00    +0.031 C 
BRANCH   5   8
ATOM      7  C   VAL A   2      22.583  -4.537 -19.062  0.00  0.00    +0.241 C 
ATOM      8  N   ALA A   3      21.605  -3.788 -18.557  0.00  0.00    -0.297 N 
ATOM      9  H   ALA A   3      20.618  -4.056 -18.745  0.00  0.00    +0.150 HD
ATOM     10  O   VAL A   2      23.778  -4.301 -18.873  0.00  0.00    -0.273 OA
BRANCH   7  11
ATOM     11  CA  VAL A   2      22.156  -5.707 -19.953  0.00  0.00    +0.148 C 
BRANCH  11  13
ATOM     12  C   LYS A   1      22.986  -4.635 -21.974  0.00  0.00    +0.238 C 
ATOM     13  N   VAL A   2      22.986  -5.690 -21.162  0.00  0.00    -0.297 N 
ATOM     14  H   VAL A   2      23.582  -6.512 -21.388  0.00  0.00    +0.150 HD
ATOM     15  O   LYS A   1      22.203  -3.695 -21.839  0.00  0.00    -0.274 OA
BRANCH  12  16
ATOM     16  CA  LYS A   1      23.999  -4.635 -23.107  0.00  0.00    +0.145 C 
BRANCH  16  17
ATOM     17  N   LYS A   1      23.299  -4.845 -24.376  0.00  0.00    -0.238 NA
ATOM     18  H   LYS A   1      22.595  -4.143 -24.681  0.00  0.00    +0.142 HD
ENDBRANCH  16  17
BRANCH  16  19
ATOM     19  CB  LYS A   1      24.764  -3.297 -23.110  0.00  0.00    +0.026 C 
BRANCH  19  20
ATOM     20  CG  LYS A   1      25.654  -3.047 -24.331  0.00  0.00    -0.000 C 
BRANCH  20  21
ATOM     21  CD  LYS A   1      26.972  -3.784 -24.231  0.00  0.00    -0.024 C 
BRANCH  21  22
ATOM     22  CE  LYS A   1      27.851  -3.527 -25.444  0.00  0.00    -0.086 C 
BRANCH  22  23
ATOM     23  NZ  LYS A   1      29.184  -4.152 -25.230  0.00  0.00    +0.380 N 
ATOM     24  HZ1 LYS A   1      29.628  -3.739 -24.385  0.00  0.00    -0.089 HD
ATOM     25  HZ2 LYS A   1      29.068  -5.177 -25.096  0.00  0.00    -0.089 HD
ATOM     26  HZ3 LYS A   1      29.785  -3.976 -26.060  0.00  0.00    -0.089 HD
ENDBRANCH  22  23
ENDBRANCH  21  22
ENDBRANCH  20  21
ENDBRANCH  19  20
ENDBRANCH  16  19
ENDBRANCH  12  16
ENDBRANCH  11  13
BRANCH  11  27
ATOM     27  CB  VAL A   2      22.233  -7.072 -19.210  0.00  0.00    +0.027 C 
ATOM     28  CG2 VAL A   2      21.383  -7.065 -17.955  0.00  0.00    +0.002 C 
ATOM     29  CG1 VAL A   2      21.783  -8.207 -20.130  0.00  0.00    +0.002 C 
ENDBRANCH  11  27
ENDBRANCH   7  11
ENDBRANCH   5   8
ENDBRANCH   1   5
BRANCH   2  30
ATOM     30  CA  ASP A   4      20.133  -1.016 -14.739  0.00  0.00    +0.160 C 
BRANCH  30  31
ATOM     31  C   ASP A   4      20.065  -2.084 -13.641  0.00  0.00    +0.241 C 
ATOM     32  O   ASP A   4      19.083  -2.150 -12.902  0.00  0.00    -0.273 OA
ATOM     33  N   PHE A   5      21.105  -2.915 -13.547  0.00  0.00    -0.297 N 
ATOM     34  H   PHE A   5      21.831  -2.890 -14.291  0.00  0.00    +0.150 HD
BRANCH  33  35
ATOM     35  CA  PHE A   5      21.267  -3.864 -12.436  0.00  0.00    +0.153 C 
BRANCH  35  36
ATOM     36  C   PHE A   5      21.884  -3.160 -11.218  0.00  0.00    +0.241 C 
ATOM     37  N   GLY A   6      21.549  -3.619 -10.015  0.00  0.00    -0.296 N 
ATOM     38  H   GLY A   6      20.929  -4.451  -9.941  0.00  0.00    +0.150 HD
ATOM     39  O   PHE A   5      22.656  -2.215 -11.370  0.00  0.00    -0.273 OA
BRANCH  37  40
ATOM     40  CA  GLY A   6      22.037  -2.975  -8.792  0.00  0.00    +0.163 C 
BRANCH  40  41
ATOM     41  C   GLY A   6      21.102  -1.891  -8.283  0.00  0.00    +0.229 C 
ATOM     42  O   GLY A   6      21.461  -0.709  -8.238  0.00  0.00    -0.286 OA
ENDBRANCH  40  41
ENDBRANCH  37  40
ENDBRANCH  35  36
BRANCH  35  43
ATOM     43  CB  PHE A   5      22.125  -5.077 -12.854  0.00  0.00    +0.055 C 
BRANCH  43  44
ATOM     44  CG  PHE A   5      23.474  -4.717 -13.451  0.00  0.00    -0.020 A 
ATOM     45  CD2 PHE A   5      24.604  -4.598 -12.641  0.00  0.00    -0.004 A 
ATOM     46  CE2 PHE A   5      25.844  -4.268 -13.184  0.00  0.00    -0.000 A 
ATOM     47  CZ  PHE A   5      25.975  -4.071 -14.561  0.00  0.00    -0.000 A 
ATOM     48  CE1 PHE A   5      24.855  -4.194 -15.383  0.00  0.00    -0.000 A 
ATOM     49  CD1 PHE A   5      23.615  -4.522 -14.825  0.00  0.00    -0.004 A 
ENDBRANCH  43  44
ENDBRANCH  35  43
ENDBRANCH  33  35
ENDBRANCH  30  31
BRANCH  30  50
ATOM     50  CB  ASP A   4      18.723  -0.643 -15.230  0.00  0.00    +0.143 C 
BRANCH  50  51
ATOM     51  CG  ASP A   4      18.466   0.854 -15.218  0.00  0.00    +0.367 C 
ATOM     52  OD2 ASP A   4      17.277   1.235 -15.200  0.00  0.00    -0.246 OA
ATOM     53  OD1 ASP A   4      19.430   1.655 -15.219  0.00  0.00    -0.246 OA
ENDBRANCH  50  51
ENDBRANCH  30  50
ENDBRANCH   2  30
TORSDOF 22
REMARK  Name = ../refined-set-2016/3u6h/3u6h_pocket.pdb
REMARK  259 active torsions:
REMARK  status: ('A' for Active; 'I' for Inactive)
REMARK    1  A    between atoms: _1  and  _3
REMARK    2  A    between atoms: _3  and  _4
REMARK    3  A    between atoms: _3  and  _6
REMARK    4  A    between atoms: _9  and  _11
REMARK    5  A    between atoms: _11  and  _12
REMARK    6  A    between atoms: _11  and  _14
REMARK    7  A    between atoms: _17  and  _19
REMARK    8  A    between atoms: _19  and  _20
REMARK    9  A    between atoms: _19  and  _22
REMARK   10  A    between atoms: _22  and  _23
REMARK   11  A    between atoms: _26  and  _28
REMARK   12  A    between atoms: _28  and  _29
REMARK   13  A    between atoms: _31  and  _33
REMARK   14  A    between atoms: _33  and  _34
REMARK   15  A    between atoms: _33  and  _36
REMARK   16  A    between atoms: _36  and  _37
REMARK   17  A    between atoms: _37  and  _38
REMARK   18  A    between atoms: _38  and  _39
REMARK   19  A    between atoms: _48  and  _50
REMARK   20  A    between atoms: _50  and  _51
REMARK   21  A    between atoms: _53  and  _55
REMARK   22  A    between atoms: _55  and  _56
REMARK   23  A    between atoms: _55  and  _58
REMARK   24  A    between atoms: _58  and  _59
REMARK   25  A    between atoms: _64  and  _66
REMARK   26  A    between atoms: _66  and  _67
REMARK   27  A    between atoms: _66  and  _69
REMARK   28  A    between atoms: _69  and  _70
REMARK   29  A    between atoms: _76  and  _78
REMARK   30  A    between atoms: _78  and  _79
REMARK   31  A    between atoms: _81  and  _83
REMARK   32  A    between atoms: _83  and  _84
REMARK   33  A    between atoms: _83  and  _86
REMARK   34  A    between atoms: _88  and  _90
REMARK   35  A    between atoms: _90  and  _91
REMARK   36  A    between atoms: _90  and  _93
REMARK   37  A    between atoms: _96  and  _98
REMARK   38  A    between atoms: _98  and  _99
REMARK   39  A    between atoms: _98  and  _101
REMARK   40  A    between atoms: _101  and  _102
REMARK   41  A    between atoms: _107  and  _108
REMARK   42  A    between atoms: _110  and  _112
REMARK   43  A    between atoms: _112  and  _113
REMARK   44  A    between atoms: _112  and  _115
REMARK   45  A    between atoms: _115  and  _116
REMARK   46  A    between atoms: _121  and  _123
REMARK   47  A    between atoms: _123  and  _124
REMARK   48  A    between atoms: _123  and  _126
REMARK   49  A    between atoms: _126  and  _127
REMARK   50  A    between atoms: _132  and  _134
REMARK   51  A    between atoms: _134  and  _135
REMARK   52  A    between atoms: _134  and  _137
REMARK   53  A    between atoms: _139  and  _141
REMARK   54  A    between atoms: _141  and  _142
REMARK   55  A    between atoms: _145  and  _147
REMARK   56  A    between atoms: _147  and  _148
REMARK   57  A    between atoms: _147  and  _150
REMARK   58  A    between atoms: _153  and  _155
REMARK   59  A    between atoms: _155  and  _156
REMARK   60  A    between atoms: _155  and  _158
REMARK   61  A    between atoms: _158  and  _159
REMARK   62  A    between atoms: _159  and  _160
REMARK   63  A    between atoms: _160  and  _161
REMARK   64  A    between atoms: _161  and  _162
REMARK   65  A    between atoms: _166  and  _168
REMARK   66  A    between atoms: _168  and  _169
REMARK   67  A    between atoms: _168  and  _171
REMARK   68  A    between atoms: _171  and  _172
REMARK   69  A    between atoms: _174  and  _176
REMARK   70  A    between atoms: _176  and  _177
REMARK   71  A    between atoms: _176  and  _179
REMARK   72  A    between atoms: _179  and  _180
REMARK   73  A    between atoms: _183  and  _185
REMARK   74  A    between atoms: _185  and  _186
REMARK   75  A    between atoms: _185  and  _188
REMARK   76  A    between atoms: _188  and  _189
REMARK   77  A    between atoms: _192  and  _194
REMARK   78  A    between atoms: _194  and  _195
REMARK   79  A    between atoms: _194  and  _197
REMARK   80  A    between atoms: _197  and  _198
REMARK   81  A    between atoms: _198  and  _199
REMARK   82  A    between atoms: _202  and  _204
REMARK   83  A    between atoms: _204  and  _205
REMARK   84  A    between atoms: _204  and  _207
REMARK   85  A    between atoms: _210  and  _212
REMARK   86  A    between atoms: _212  and  _213
REMARK   87  A    between atoms: _212  and  _215
REMARK   88  A    between atoms: _215  and  _216
REMARK   89  A    between atoms: _216  and  _217
REMARK   90  A    between atoms: _222  and  _224
REMARK   91  A    between atoms: _224  and  _225
REMARK   92  A    between atoms: _224  and  _227
REMARK   93  A    between atoms: _227  and  _228
REMARK   94  A    between atoms: _234  and  _236
REMARK   95  A    between atoms: _236  and  _237
REMARK   96  A    between atoms: _236  and  _239
REMARK   97  A    between atoms: _239  and  _240
REMARK   98  A    between atoms: _243  and  _245
REMARK   99  A    between atoms: _245  and  _246
REMARK  100  A    between atoms: _245  and  _248
REMARK  101  A    between atoms: _248  and  _249
REMARK  102  A    between atoms: _252  and  _254
REMARK  103  A    between atoms: _254  and  _255
REMARK  104  A    between atoms: _254  and  _257
REMARK  105  A    between atoms: _257  and  _258
REMARK  106  A    between atoms: _258  and  _259
REMARK  107  A    between atoms: _262  and  _264
REMARK  108  A    between atoms: _264  and  _265
REMARK  109  A    between atoms: _267  and  _269
REMARK  110  A    between atoms: _269  and  _270
REMARK  111  A    between atoms: _269  and  _272
REMARK  112  A    between atoms: _272  and  _273
REMARK  113  A    between atoms: _276  and  _278
REMARK  114  A    between atoms: _278  and  _279
REMARK  115  A    between atoms: _278  and  _281
REMARK  116  A    between atoms: _281  and  _282
REMARK  117  A    between atoms: _285  and  _287
REMARK  118  A    between atoms: _287  and  _288
REMARK  119  A    between atoms: _287  and  _290
REMARK  120  A    between atoms: _290  and  _291
REMARK  121  A    between atoms: _291  and  _292
REMARK  122  A    between atoms: _294  and  _296
REMARK  123  A    between atoms: _296  and  _297
REMARK  124  A    between atoms: _296  and  _299
REMARK  125  A    between atoms: _299  and  _300
REMARK  126  A    between atoms: _300  and  _301
REMARK  127  A    between atoms: _301  and  _302
REMARK  128  A    between atoms: _302  and  _303
REMARK  129  A    between atoms: _307  and  _309
REMARK  130  A    between atoms: _309  and  _310
REMARK  131  A    between atoms: _309  and  _312
REMARK  132  A    between atoms: _312  and  _313
REMARK  133  A    between atoms: _319  and  _321
REMARK  134  A    between atoms: _321  and  _322
REMARK  135  A    between atoms: _321  and  _324
REMARK  136  A    between atoms: _327  and  _329
REMARK  137  A    between atoms: _329  and  _330
REMARK  138  A    between atoms: _329  and  _332
REMARK  139  A    between atoms: _332  and  _333
REMARK  140  A    between atoms: _336  and  _338
REMARK  141  A    between atoms: _338  and  _339
REMARK  142  A    between atoms: _338  and  _341
REMARK  143  A    between atoms: _341  and  _342
REMARK  144  A    between atoms: _344  and  _346
REMARK  145  A    between atoms: _346  and  _347
REMARK  146  A    between atoms: _346  and  _349
REMARK  147  A    between atoms: _349  and  _350
REMARK  148  A    between atoms: _353  and  _355
REMARK  149  A    between atoms: _355  and  _356
REMARK  150  A    between atoms: _358  and  _360
REMARK  151  A    between atoms: _360  and  _361
REMARK  152  A    between atoms: _360  and  _363
REMARK  153  A    between atoms: _363  and  _364
REMARK  154  A    between atoms: _367  and  _369
REMARK  155  A    between atoms: _369  and  _370
REMARK  156  A    between atoms: _369  and  _372
REMARK  157  A    between atoms: _375  and  _376
REMARK  158  A    between atoms: _381  and  _383
REMARK  159  A    between atoms: _383  and  _384
REMARK  160  A    between atoms: _383  and  _386
REMARK  161  A    between atoms: _386  and  _387
REMARK  162  A    between atoms: _390  and  _392
REMARK  163  A    between atoms: _392  and  _393
REMARK  164  A    between atoms: _392  and  _395
REMARK  165  A    between atoms: _398  and  _400
REMARK  166  A    between atoms: _400  and  _401
REMARK  167  A    between atoms: _400  and  _403
REMARK  168  A    between atoms: _406  and  _408
REMARK  169  A    between atoms: _408  and  _409
REMARK  170  A    between atoms: _408  and  _411
REMARK  171  A    between atoms: _411  and  _412
REMARK  172  A    between atoms: _416  and  _417
REMARK  173  A    between atoms: _422  and  _424
REMARK  174  A    between atoms: _424  and  _425
REMARK  175  A    between atoms: _424  and  _427
REMARK  176  A    between atoms: _427  and  _428
REMARK  177  A    between atoms: _433  and  _434
REMARK  178  A    between atoms: _436  and  _438
REMARK  179  A    between atoms: _438  and  _439
REMARK  180  A    between atoms: _438  and  _441
REMARK  181  A    between atoms: _441  and  _442
REMARK  182  A    between atoms: _442  and  _443
REMARK  183  A    between atoms: _445  and  _447
REMARK  184  A    between atoms: _447  and  _448
REMARK  185  A    between atoms: _447  and  _450
REMARK  186  A    between atoms: _450  and  _451
REMARK  187  A    between atoms: _451  and  _452
REMARK  188  A    between atoms: _452  and  _453
REMARK  189  A    between atoms: _453  and  _454
REMARK  190  A    between atoms: _458  and  _460
REMARK  191  A    between atoms: _460  and  _461
REMARK  192  A    between atoms: _460  and  _463
REMARK  193  A    between atoms: _463  and  _464
REMARK  194  A    between atoms: _469  and  _471
REMARK  195  A    between atoms: _471  and  _472
REMARK  196  A    between atoms: _474  and  _476
REMARK  197  A    between atoms: _476  and  _477
REMARK  198  A    between atoms: _476  and  _479
REMARK  199  A    between atoms: _479  and  _480
REMARK  200  A    between atoms: _483  and  _485
REMARK  201  A    between atoms: _485  and  _486
REMARK  202  A    between atoms: _485  and  _488
REMARK  203  A    between atoms: _488  and  _489
REMARK  204  A    between atoms: _494  and  _496
REMARK  205  A    between atoms: _496  and  _497
REMARK  206  A    between atoms: _496  and  _499
REMARK  207  A    between atoms: _499  and  _500
REMARK  208  A    between atoms: _503  and  _505
REMARK  209  A    between atoms: _505  and  _506
REMARK  210  A    between atoms: _505  and  _508
REMARK  211  A    between atoms: _508  and  _509
REMARK  212  A    between atoms: _515  and  _517
REMARK  213  A    between atoms: _517  and  _518
REMARK  214  A    between atoms: _517  and  _520
REMARK  215  A    between atoms: _520  and  _521
REMARK  216  A    between atoms: _526  and  _528
REMARK  217  A    between atoms: _528  and  _529
REMARK  218  A    between atoms: _528  and  _531
REMARK  219  A    between atoms: _531  and  _532
REMARK  220  A    between atoms: _532  and  _533
REMARK  221  A    between atoms: _533  and  _534
REMARK  222  A    between atoms: _543  and  _545
REMARK  223  A    between atoms: _545  and  _546
REMARK  224  A    between atoms: _545  and  _548
REMARK  225  A    between atoms: _548  and  _549
REMARK  226  A    between atoms: _554  and  _556
REMARK  227  A    between atoms: _556  and  _557
REMARK  228  A    between atoms: _556  and  _559
REMARK  229  A    between atoms: _561  and  _563
REMARK  230  A    between atoms: _563  and  _564
REMARK  231  A    between atoms: _563  and  _566
REMARK  232  A    between atoms: _566  and  _567
REMARK  233  A    between atoms: _567  and  _568
REMARK  234  A    between atoms: _570  and  _572
REMARK  235  A    between atoms: _572  and  _573
REMARK  236  A    between atoms: _572  and  _575
REMARK  237  A    between atoms: _575  and  _576
REMARK  238  A    between atoms: _579  and  _581
REMARK  239  A    between atoms: _581  and  _582
REMARK  240  A    between atoms: _581  and  _584
REMARK  241  A    between atoms: _584  and  _585
REMARK  242  A    between atoms: _585  and  _586
REMARK  243  A    between atoms: _586  and  _587
REMARK  244  A    between atoms: _587  and  _588
REMARK  245  A    between atoms: _592  and  _594
REMARK  246  A    between atoms: _594  and  _595
REMARK  247  A    between atoms: _594  and  _597
REMARK  248  A    between atoms: _600  and  _602
REMARK  249  A    between atoms: _602  and  _603
REMARK  250  A    between atoms: _606  and  _608
REMARK  251  A    between atoms: _608  and  _609
REMARK  252  A    between atoms: _608  and  _611
REMARK  253  A    between atoms: _611  and  _612
REMARK  254  A    between atoms: _615  and  _617
REMARK  255  A    between atoms: _617  and  _618
REMARK  256  A    between atoms: _617  and  _620
REMARK  257  A    between atoms: _620  and  _621
REMARK  258  A    between atoms: _627  and  _629
REMARK  259  A    between atoms: _629  and  _630
REMARK                            x       y       z     vdW  Elec       q    Type
REMARK                         _______ _______ _______ _____ _____    ______ ____
ROOT
ATOM      1  O   HOH     1      26.743   2.717 -29.392  0.00  0.00    +0.000 OA
ENDROOT
TORSDOF 0
REMARK  Name = ../refined-set-2016/3u6h/3u6h_pocket.pdb
REMARK  259 active torsions:
REMARK  status: ('A' for Active; 'I' for Inactive)
REMARK    1  A    between atoms: _1  and  _3
REMARK    2  A    between atoms: _3  and  _4
REMARK    3  A    between atoms: _3  and  _6
REMARK    4  A    between atoms: _9  and  _11
REMARK    5  A    between atoms: _11  and  _12
REMARK    6  A    between atoms: _11  and  _14
REMARK    7  A    between atoms: _17  and  _19
REMARK    8  A    between atoms: _19  and  _20
REMARK    9  A    between atoms: _19  and  _22
REMARK   10  A    between atoms: _22  and  _23
REMARK   11  A    between atoms: _26  and  _28
REMARK   12  A    between atoms: _28  and  _29
REMARK   13  A    between atoms: _31  and  _33
REMARK   14  A    between atoms: _33  and  _34
REMARK   15  A    between atoms: _33  and  _36
REMARK   16  A    between atoms: _36  and  _37
REMARK   17  A    between atoms: _37  and  _38
REMARK   18  A    between atoms: _38  and  _39
REMARK   19  A    between atoms: _48  and  _50
REMARK   20  A    between atoms: _50  and  _51
REMARK   21  A    between atoms: _53  and  _55
REMARK   22  A    between atoms: _55  and  _56
REMARK   23  A    between atoms: _55  and  _58
REMARK   24  A    between atoms: _58  and  _59
REMARK   25  A    between atoms: _64  and  _66
REMARK   26  A    between atoms: _66  and  _67
REMARK   27  A    between atoms: _66  and  _69
REMARK   28  A    between atoms: _69  and  _70
REMARK   29  A    between atoms: _76  and  _78
REMARK   30  A    between atoms: _78  and  _79
REMARK   31  A    between atoms: _81  and  _83
REMARK   32  A    between atoms: _83  and  _84
REMARK   33  A    between atoms: _83  and  _86
REMARK   34  A    between atoms: _88  and  _90
REMARK   35  A    between atoms: _90  and  _91
REMARK   36  A    between atoms: _90  and  _93
REMARK   37  A    between atoms: _96  and  _98
REMARK   38  A    between atoms: _98  and  _99
REMARK   39  A    between atoms: _98  and  _101
REMARK   40  A    between atoms: _101  and  _102
REMARK   41  A    between atoms: _107  and  _108
REMARK   42  A    between atoms: _110  and  _112
REMARK   43  A    between atoms: _112  and  _113
REMARK   44  A    between atoms: _112  and  _115
REMARK   45  A    between atoms: _115  and  _116
REMARK   46  A    between atoms: _121  and  _123
REMARK   47  A    between atoms: _123  and  _124
REMARK   48  A    between atoms: _123  and  _126
REMARK   49  A    between atoms: _126  and  _127
REMARK   50  A    between atoms: _132  and  _134
REMARK   51  A    between atoms: _134  and  _135
REMARK   52  A    between atoms: _134  and  _137
REMARK   53  A    between atoms: _139  and  _141
REMARK   54  A    between atoms: _141  and  _142
REMARK   55  A    between atoms: _145  and  _147
REMARK   56  A    between atoms: _147  and  _148
REMARK   57  A    between atoms: _147  and  _150
REMARK   58  A    between atoms: _153  and  _155
REMARK   59  A    between atoms: _155  and  _156
REMARK   60  A    between atoms: _155  and  _158
REMARK   61  A    between atoms: _158  and  _159
REMARK   62  A    between atoms: _159  and  _160
REMARK   63  A    between atoms: _160  and  _161
REMARK   64  A    between atoms: _161  and  _162
REMARK   65  A    between atoms: _166  and  _168
REMARK   66  A    between atoms: _168  and  _169
REMARK   67  A    between atoms: _168  and  _171
REMARK   68  A    between atoms: _171  and  _172
REMARK   69  A    between atoms: _174  and  _176
REMARK   70  A    between atoms: _176  and  _177
REMARK   71  A    between atoms: _176  and  _179
REMARK   72  A    between atoms: _179  and  _180
REMARK   73  A    between atoms: _183  and  _185
REMARK   74  A    between atoms: _185  and  _186
REMARK   75  A    between atoms: _185  and  _188
REMARK   76  A    between atoms: _188  and  _189
REMARK   77  A    between atoms: _192  and  _194
REMARK   78  A    between atoms: _194  and  _195
REMARK   79  A    between atoms: _194  and  _197
REMARK   80  A    between atoms: _197  and  _198
REMARK   81  A    between atoms: _198  and  _199
REMARK   82  A    between atoms: _202  and  _204
REMARK   83  A    between atoms: _204  and  _205
REMARK   84  A    between atoms: _204  and  _207
REMARK   85  A    between atoms: _210  and  _212
REMARK   86  A    between atoms: _212  and  _213
REMARK   87  A    between atoms: _212  and  _215
REMARK   88  A    between atoms: _215  and  _216
REMARK   89  A    between atoms: _216  and  _217
REMARK   90  A    between atoms: _222  and  _224
REMARK   91  A    between atoms: _224  and  _225
REMARK   92  A    between atoms: _224  and  _227
REMARK   93  A    between atoms: _227  and  _228
REMARK   94  A    between atoms: _234  and  _236
REMARK   95  A    between atoms: _236  and  _237
REMARK   96  A    between atoms: _236  and  _239
REMARK   97  A    between atoms: _239  and  _240
REMARK   98  A    between atoms: _243  and  _245
REMARK   99  A    between atoms: _245  and  _246
REMARK  100  A    between atoms: _245  and  _248
REMARK  101  A    between atoms: _248  and  _249
REMARK  102  A    between atoms: _252  and  _254
REMARK  103  A    between atoms: _254  and  _255
REMARK  104  A    between atoms: _254  and  _257
REMARK  105  A    between atoms: _257  and  _258
REMARK  106  A    between atoms: _258  and  _259
REMARK  107  A    between atoms: _262  and  _264
REMARK  108  A    between atoms: _264  and  _265
REMARK  109  A    between atoms: _267  and  _269
REMARK  110  A    between atoms: _269  and  _270
REMARK  111  A    between atoms: _269  and  _272
REMARK  112  A    between atoms: _272  and  _273
REMARK  113  A    between atoms: _276  and  _278
REMARK  114  A    between atoms: _278  and  _279
REMARK  115  A    between atoms: _278  and  _281
REMARK  116  A    between atoms: _281  and  _282
REMARK  117  A    between atoms: _285  and  _287
REMARK  118  A    between atoms: _287  and  _288
REMARK  119  A    between atoms: _287  and  _290
REMARK  120  A    between atoms: _290  and  _291
REMARK  121  A    between atoms: _291  and  _292
REMARK  122  A    between atoms: _294  and  _296
REMARK  123  A    between atoms: _296  and  _297
REMARK  124  A    between atoms: _296  and  _299
REMARK  125  A    between atoms: _299  and  _300
REMARK  126  A    between atoms: _300  and  _301
REMARK  127  A    between atoms: _301  and  _302
REMARK  128  A    between atoms: _302  and  _303
REMARK  129  A    between atoms: _307  and  _309
REMARK  130  A    between atoms: _309  and  _310
REMARK  131  A    between atoms: _309  and  _312
REMARK  132  A    between atoms: _312  and  _313
REMARK  133  A    between atoms: _319  and  _321
REMARK  134  A    between atoms: _321  and  _322
REMARK  135  A    between atoms: _321  and  _324
REMARK  136  A    between atoms: _327  and  _329
REMARK  137  A    between atoms: _329  and  _330
REMARK  138  A    between atoms: _329  and  _332
REMARK  139  A    between atoms: _332  and  _333
REMARK  140  A    between atoms: _336  and  _338
REMARK  141  A    between atoms: _338  and  _339
REMARK  142  A    between atoms: _338  and  _341
REMARK  143  A    between atoms: _341  and  _342
REMARK  144  A    between atoms: _344  and  _346
REMARK  145  A    between atoms: _346  and  _347
REMARK  146  A    between atoms: _346  and  _349
REMARK  147  A    between atoms: _349  and  _350
REMARK  148  A    between atoms: _353  and  _355
REMARK  149  A    between atoms: _355  and  _356
REMARK  150  A    between atoms: _358  and  _360
REMARK  151  A    between atoms: _360  and  _361
REMARK  152  A    between atoms: _360  and  _363
REMARK  153  A    between atoms: _363  and  _364
REMARK  154  A    between atoms: _367  and  _369
REMARK  155  A    between atoms: _369  and  _370
REMARK  156  A    between atoms: _369  and  _372
REMARK  157  A    between atoms: _375  and  _376
REMARK  158  A    between atoms: _381  and  _383
REMARK  159  A    between atoms: _383  and  _384
REMARK  160  A    between atoms: _383  and  _386
REMARK  161  A    between atoms: _386  and  _387
REMARK  162  A    between atoms: _390  and  _392
REMARK  163  A    between atoms: _392  and  _393
REMARK  164  A    between atoms: _392  and  _395
REMARK  165  A    between atoms: _398  and  _400
REMARK  166  A    between atoms: _400  and  _401
REMARK  167  A    between atoms: _400  and  _403
REMARK  168  A    between atoms: _406  and  _408
REMARK  169  A    between atoms: _408  and  _409
REMARK  170  A    between atoms: _408  and  _411
REMARK  171  A    between atoms: _411  and  _412
REMARK  172  A    between atoms: _416  and  _417
REMARK  173  A    between atoms: _422  and  _424
REMARK  174  A    between atoms: _424  and  _425
REMARK  175  A    between atoms: _424  and  _427
REMARK  176  A    between atoms: _427  and  _428
REMARK  177  A    between atoms: _433  and  _434
REMARK  178  A    between atoms: _436  and  _438
REMARK  179  A    between atoms: _438  and  _439
REMARK  180  A    between atoms: _438  and  _441
REMARK  181  A    between atoms: _441  and  _442
REMARK  182  A    between atoms: _442  and  _443
REMARK  183  A    between atoms: _445  and  _447
REMARK  184  A    between atoms: _447  and  _448
REMARK  185  A    between atoms: _447  and  _450
REMARK  186  A    between atoms: _450  and  _451
REMARK  187  A    between atoms: _451  and  _452
REMARK  188  A    between atoms: _452  and  _453
REMARK  189  A    between atoms: _453  and  _454
REMARK  190  A    between atoms: _458  and  _460
REMARK  191  A    between atoms: _460  and  _461
REMARK  192  A    between atoms: _460  and  _463
REMARK  193  A    between atoms: _463  and  _464
REMARK  194  A    between atoms: _469  and  _471
REMARK  195  A    between atoms: _471  and  _472
REMARK  196  A    between atoms: _474  and  _476
REMARK  197  A    between atoms: _476  and  _477
REMARK  198  A    between atoms: _476  and  _479
REMARK  199  A    between atoms: _479  and  _480
REMARK  200  A    between atoms: _483  and  _485
REMARK  201  A    between atoms: _485  and  _486
REMARK  202  A    between atoms: _485  and  _488
REMARK  203  A    between atoms: _488  and  _489
REMARK  204  A    between atoms: _494  and  _496
REMARK  205  A    between atoms: _496  and  _497
REMARK  206  A    between atoms: _496  and  _499
REMARK  207  A    between atoms: _499  and  _500
REMARK  208  A    between atoms: _503  and  _505
REMARK  209  A    between atoms: _505  and  _506
REMARK  210  A    between atoms: _505  and  _508
REMARK  211  A    between atoms: _508  and  _509
REMARK  212  A    between atoms: _515  and  _517
REMARK  213  A    between atoms: _517  and  _518
REMARK  214  A    between atoms: _517  and  _520
REMARK  215  A    between atoms: _520  and  _521
REMARK  216  A    between atoms: _526  and  _528
REMARK  217  A    between atoms: _528  and  _529
REMARK  218  A    between atoms: _528  and  _531
REMARK  219  A    between atoms: _531  and  _532
REMARK  220  A    between atoms: _532  and  _533
REMARK  221  A    between atoms: _533  and  _534
REMARK  222  A    between atoms: _543  and  _545
REMARK  223  A    between atoms: _545  and  _546
REMARK  224  A    between atoms: _545  and  _548
REMARK  225  A    between atoms: _548  and  _549
REMARK  226  A    between atoms: _554  and  _556
REMARK  227  A    between atoms: _556  and  _557
REMARK  228  A    between atoms: _556  and  _559
REMARK  229  A    between atoms: _561  and  _563
REMARK  230  A    between atoms: _563  and  _564
REMARK  231  A    between atoms: _563  and  _566
REMARK  232  A    between atoms: _566  and  _567
REMARK  233  A    between atoms: _567  and  _568
REMARK  234  A    between atoms: _570  and  _572
REMARK  235  A    between atoms: _572  and  _573
REMARK  236  A    between atoms: _572  and  _575
REMARK  237  A    between atoms: _575  and  _576
REMARK  238  A    between atoms: _579  and  _581
REMARK  239  A    between atoms: _581  and  _582
REMARK  240  A    between atoms: _581  and  _584
REMARK  241  A    between atoms: _584  and  _585
REMARK  242  A    between atoms: _585  and  _586
REMARK  243  A    between atoms: _586  and  _587
REMARK  244  A    between atoms: _587  and  _588
REMARK  245  A    between atoms: _592  and  _594
REMARK  246  A    between atoms: _594  and  _595
REMARK  247  A    between atoms: _594  and  _597
REMARK  248  A    between atoms: _600  and  _602
REMARK  249  A    between atoms: _602  and  _603
REMARK  250  A    between atoms: _606  and  _608
REMARK  251  A    between atoms: _608  and  _609
REMARK  252  A    between atoms: _608  and  _611
REMARK  253  A    between atoms: _611  and  _612
REMARK  254  A    between atoms: _615  and  _617
REMARK  255  A    between atoms: _617  and  _618
REMARK  256  A    between atoms: _617  and  _620
REMARK  257  A    between atoms: _620  and  _621
REMARK  258  A    between atoms: _627  and  _629
REMARK  259  A    between atoms: _629  and  _630
REMARK                            x       y       z     vdW  Elec       q    Type
REMARK                         _______ _______ _______ _____ _____    ______ ____
ROOT
ATOM      1  O   HOH     1      17.404   3.617 -32.855  0.00  0.00    +0.000 OA
ENDROOT
TORSDOF 0
REMARK  Name = ../refined-set-2016/3u6h/3u6h_pocket.pdb
REMARK  259 active torsions:
REMARK  status: ('A' for Active; 'I' for Inactive)
REMARK    1  A    between atoms: _1  and  _3
REMARK    2  A    between atoms: _3  and  _4
REMARK    3  A    between atoms: _3  and  _6
REMARK    4  A    between atoms: _9  and  _11
REMARK    5  A    between atoms: _11  and  _12
REMARK    6  A    between atoms: _11  and  _14
REMARK    7  A    between atoms: _17  and  _19
REMARK    8  A    between atoms: _19  and  _20
REMARK    9  A    between atoms: _19  and  _22
REMARK   10  A    between atoms: _22  and  _23
REMARK   11  A    between atoms: _26  and  _28
REMARK   12  A    between atoms: _28  and  _29
REMARK   13  A    between atoms: _31  and  _33
REMARK   14  A    between atoms: _33  and  _34
REMARK   15  A    between atoms: _33  and  _36
REMARK   16  A    between atoms: _36  and  _37
REMARK   17  A    between atoms: _37  and  _38
REMARK   18  A    between atoms: _38  and  _39
REMARK   19  A    between atoms: _48  and  _50
REMARK   20  A    between atoms: _50  and  _51
REMARK   21  A    between atoms: _53  and  _55
REMARK   22  A    between atoms: _55  and  _56
REMARK   23  A    between atoms: _55  and  _58
REMARK   24  A    between atoms: _58  and  _59
REMARK   25  A    between atoms: _64  and  _66
REMARK   26  A    between atoms: _66  and  _67
REMARK   27  A    between atoms: _66  and  _69
REMARK   28  A    between atoms: _69  and  _70
REMARK   29  A    between atoms: _76  and  _78
REMARK   30  A    between atoms: _78  and  _79
REMARK   31  A    between atoms: _81  and  _83
REMARK   32  A    between atoms: _83  and  _84
REMARK   33  A    between atoms: _83  and  _86
REMARK   34  A    between atoms: _88  and  _90
REMARK   35  A    between atoms: _90  and  _91
REMARK   36  A    between atoms: _90  and  _93
REMARK   37  A    between atoms: _96  and  _98
REMARK   38  A    between atoms: _98  and  _99
REMARK   39  A    between atoms: _98  and  _101
REMARK   40  A    between atoms: _101  and  _102
REMARK   41  A    between atoms: _107  and  _108
REMARK   42  A    between atoms: _110  and  _112
REMARK   43  A    between atoms: _112  and  _113
REMARK   44  A    between atoms: _112  and  _115
REMARK   45  A    between atoms: _115  and  _116
REMARK   46  A    between atoms: _121  and  _123
REMARK   47  A    between atoms: _123  and  _124
REMARK   48  A    between atoms: _123  and  _126
REMARK   49  A    between atoms: _126  and  _127
REMARK   50  A    between atoms: _132  and  _134
REMARK   51  A    between atoms: _134  and  _135
REMARK   52  A    between atoms: _134  and  _137
REMARK   53  A    between atoms: _139  and  _141
REMARK   54  A    between atoms: _141  and  _142
REMARK   55  A    between atoms: _145  and  _147
REMARK   56  A    between atoms: _147  and  _148
REMARK   57  A    between atoms: _147  and  _150
REMARK   58  A    between atoms: _153  and  _155
REMARK   59  A    between atoms: _155  and  _156
REMARK   60  A    between atoms: _155  and  _158
REMARK   61  A    between atoms: _158  and  _159
REMARK   62  A    between atoms: _159  and  _160
REMARK   63  A    between atoms: _160  and  _161
REMARK   64  A    between atoms: _161  and  _162
REMARK   65  A    between atoms: _166  and  _168
REMARK   66  A    between atoms: _168  and  _169
REMARK   67  A    between atoms: _168  and  _171
REMARK   68  A    between atoms: _171  and  _172
REMARK   69  A    between atoms: _174  and  _176
REMARK   70  A    between atoms: _176  and  _177
REMARK   71  A    between atoms: _176  and  _179
REMARK   72  A    between atoms: _179  and  _180
REMARK   73  A    between atoms: _183  and  _185
REMARK   74  A    between atoms: _185  and  _186
REMARK   75  A    between atoms: _185  and  _188
REMARK   76  A    between atoms: _188  and  _189
REMARK   77  A    between atoms: _192  and  _194
REMARK   78  A    between atoms: _194  and  _195
REMARK   79  A    between atoms: _194  and  _197
REMARK   80  A    between atoms: _197  and  _198
REMARK   81  A    between atoms: _198  and  _199
REMARK   82  A    between atoms: _202  and  _204
REMARK   83  A    between atoms: _204  and  _205
REMARK   84  A    between atoms: _204  and  _207
REMARK   85  A    between atoms: _210  and  _212
REMARK   86  A    between atoms: _212  and  _213
REMARK   87  A    between atoms: _212  and  _215
REMARK   88  A    between atoms: _215  and  _216
REMARK   89  A    between atoms: _216  and  _217
REMARK   90  A    between atoms: _222  and  _224
REMARK   91  A    between atoms: _224  and  _225
REMARK   92  A    between atoms: _224  and  _227
REMARK   93  A    between atoms: _227  and  _228
REMARK   94  A    between atoms: _234  and  _236
REMARK   95  A    between atoms: _236  and  _237
REMARK   96  A    between atoms: _236  and  _239
REMARK   97  A    between atoms: _239  and  _240
REMARK   98  A    between atoms: _243  and  _245
REMARK   99  A    between atoms: _245  and  _246
REMARK  100  A    between atoms: _245  and  _248
REMARK  101  A    between atoms: _248  and  _249
REMARK  102  A    between atoms: _252  and  _254
REMARK  103  A    between atoms: _254  and  _255
REMARK  104  A    between atoms: _254  and  _257
REMARK  105  A    between atoms: _257  and  _258
REMARK  106  A    between atoms: _258  and  _259
REMARK  107  A    between atoms: _262  and  _264
REMARK  108  A    between atoms: _264  and  _265
REMARK  109  A    between atoms: _267  and  _269
REMARK  110  A    between atoms: _269  and  _270
REMARK  111  A    between atoms: _269  and  _272
REMARK  112  A    between atoms: _272  and  _273
REMARK  113  A    between atoms: _276  and  _278
REMARK  114  A    between atoms: _278  and  _279
REMARK  115  A    between atoms: _278  and  _281
REMARK  116  A    between atoms: _281  and  _282
REMARK  117  A    between atoms: _285  and  _287
REMARK  118  A    between atoms: _287  and  _288
REMARK  119  A    between atoms: _287  and  _290
REMARK  120  A    between atoms: _290  and  _291
REMARK  121  A    between atoms: _291  and  _292
REMARK  122  A    between atoms: _294  and  _296
REMARK  123  A    between atoms: _296  and  _297
REMARK  124  A    between atoms: _296  and  _299
REMARK  125  A    between atoms: _299  and  _300
REMARK  126  A    between atoms: _300  and  _301
REMARK  127  A    between atoms: _301  and  _302
REMARK  128  A    between atoms: _302  and  _303
REMARK  129  A    between atoms: _307  and  _309
REMARK  130  A    between atoms: _309  and  _310
REMARK  131  A    between atoms: _309  and  _312
REMARK  132  A    between atoms: _312  and  _313
REMARK  133  A    between atoms: _319  and  _321
REMARK  134  A    between atoms: _321  and  _322
REMARK  135  A    between atoms: _321  and  _324
REMARK  136  A    between atoms: _327  and  _329
REMARK  137  A    between atoms: _329  and  _330
REMARK  138  A    between atoms: _329  and  _332
REMARK  139  A    between atoms: _332  and  _333
REMARK  140  A    between atoms: _336  and  _338
REMARK  141  A    between atoms: _338  and  _339
REMARK  142  A    between atoms: _338  and  _341
REMARK  143  A    between atoms: _341  and  _342
REMARK  144  A    between atoms: _344  and  _346
REMARK  145  A    between atoms: _346  and  _347
REMARK  146  A    between atoms: _346  and  _349
REMARK  147  A    between atoms: _349  and  _350
REMARK  148  A    between atoms: _353  and  _355
REMARK  149  A    between atoms: _355  and  _356
REMARK  150  A    between atoms: _358  and  _360
REMARK  151  A    between atoms: _360  and  _361
REMARK  152  A    between atoms: _360  and  _363
REMARK  153  A    between atoms: _363  and  _364
REMARK  154  A    between atoms: _367  and  _369
REMARK  155  A    between atoms: _369  and  _370
REMARK  156  A    between atoms: _369  and  _372
REMARK  157  A    between atoms: _375  and  _376
REMARK  158  A    between atoms: _381  and  _383
REMARK  159  A    between atoms: _383  and  _384
REMARK  160  A    between atoms: _383  and  _386
REMARK  161  A    between atoms: _386  and  _387
REMARK  162  A    between atoms: _390  and  _392
REMARK  163  A    between atoms: _392  and  _393
REMARK  164  A    between atoms: _392  and  _395
REMARK  165  A    between atoms: _398  and  _400
REMARK  166  A    between atoms: _400  and  _401
REMARK  167  A    between atoms: _400  and  _403
REMARK  168  A    between atoms: _406  and  _408
REMARK  169  A    between atoms: _408  and  _409
REMARK  170  A    between atoms: _408  and  _411
REMARK  171  A    between atoms: _411  and  _412
REMARK  172  A    between atoms: _416  and  _417
REMARK  173  A    between atoms: _422  and  _424
REMARK  174  A    between atoms: _424  and  _425
REMARK  175  A    between atoms: _424  and  _427
REMARK  176  A    between atoms: _427  and  _428
REMARK  177  A    between atoms: _433  and  _434
REMARK  178  A    between atoms: _436  and  _438
REMARK  179  A    between atoms: _438  and  _439
REMARK  180  A    between atoms: _438  and  _441
REMARK  181  A    between atoms: _441  and  _442
REMARK  182  A    between atoms: _442  and  _443
REMARK  183  A    between atoms: _445  and  _447
REMARK  184  A    between atoms: _447  and  _448
REMARK  185  A    between atoms: _447  and  _450
REMARK  186  A    between atoms: _450  and  _451
REMARK  187  A    between atoms: _451  and  _452
REMARK  188  A    between atoms: _452  and  _453
REMARK  189  A    between atoms: _453  and  _454
REMARK  190  A    between atoms: _458  and  _460
REMARK  191  A    between atoms: _460  and  _461
REMARK  192  A    between atoms: _460  and  _463
REMARK  193  A    between atoms: _463  and  _464
REMARK  194  A    between atoms: _469  and  _471
REMARK  195  A    between atoms: _471  and  _472
REMARK  196  A    between atoms: _474  and  _476
REMARK  197  A    between atoms: _476  and  _477
REMARK  198  A    between atoms: _476  and  _479
REMARK  199  A    between atoms: _479  and  _480
REMARK  200  A    between atoms: _483  and  _485
REMARK  201  A    between atoms: _485  and  _486
REMARK  202  A    between atoms: _485  and  _488
REMARK  203  A    between atoms: _488  and  _489
REMARK  204  A    between atoms: _494  and  _496
REMARK  205  A    between atoms: _496  and  _497
REMARK  206  A    between atoms: _496  and  _499
REMARK  207  A    between atoms: _499  and  _500
REMARK  208  A    between atoms: _503  and  _505
REMARK  209  A    between atoms: _505  and  _506
REMARK  210  A    between atoms: _505  and  _508
REMARK  211  A    between atoms: _508  and  _509
REMARK  212  A    between atoms: _515  and  _517
REMARK  213  A    between atoms: _517  and  _518
REMARK  214  A    between atoms: _517  and  _520
REMARK  215  A    between atoms: _520  and  _521
REMARK  216  A    between atoms: _526  and  _528
REMARK  217  A    between atoms: _528  and  _529
REMARK  218  A    between atoms: _528  and  _531
REMARK  219  A    between atoms: _531  and  _532
REMARK  220  A    between atoms: _532  and  _533
REMARK  221  A    between atoms: _533  and  _534
REMARK  222  A    between atoms: _543  and  _545
REMARK  223  A    between atoms: _545  and  _546
REMARK  224  A    between atoms: _545  and  _548
REMARK  225  A    between atoms: _548  and  _549
REMARK  226  A    between atoms: _554  and  _556
REMARK  227  A    between atoms: _556  and  _557
REMARK  228  A    between atoms: _556  and  _559
REMARK  229  A    between atoms: _561  and  _563
REMARK  230  A    between atoms: _563  and  _564
REMARK  231  A    between atoms: _563  and  _566
REMARK  232  A    between atoms: _566  and  _567
REMARK  233  A    between atoms: _567  and  _568
REMARK  234  A    between atoms: _570  and  _572
REMARK  235  A    between atoms: _572  and  _573
REMARK  236  A    between atoms: _572  and  _575
REMARK  237  A    between atoms: _575  and  _576
REMARK  238  A    between atoms: _579  and  _581
REMARK  239  A    between atoms: _581  and  _582
REMARK  240  A    between atoms: _581  and  _584
REMARK  241  A    between atoms: _584  and  _585
REMARK  242  A    between atoms: _585  and  _586
REMARK  243  A    between atoms: _586  and  _587
REMARK  244  A    between atoms: _587  and  _588
REMARK  245  A    between atoms: _592  and  _594
REMARK  246  A    between atoms: _594  and  _595
REMARK  247  A    between atoms: _594  and  _597
REMARK  248  A    between atoms: _600  and  _602
REMARK  249  A    between atoms: _602  and  _603
REMARK  250  A    between atoms: _606  and  _608
REMARK  251  A    between atoms: _608  and  _609
REMARK  252  A    between atoms: _608  and  _611
REMARK  253  A    between atoms: _611  and  _612
REMARK  254  A    between atoms: _615  and  _617
REMARK  255  A    between atoms: _617  and  _618
REMARK  256  A    between atoms: _617  and  _620
REMARK  257  A    between atoms: _620  and  _621
REMARK  258  A    between atoms: _627  and  _629
REMARK  259  A    between atoms: _629  and  _630
REMARK                            x       y       z     vdW  Elec       q    Type
REMARK                         _______ _______ _______ _____ _____    ______ ____
ROOT
ATOM      1  O   HOH     1      17.064   7.549 -26.910  0.00  0.00    +0.000 OA
ENDROOT
TORSDOF 0
REMARK  Name = ../refined-set-2016/3u6h/3u6h_pocket.pdb
REMARK  259 active torsions:
REMARK  status: ('A' for Active; 'I' for Inactive)
REMARK    1  A    between atoms: _1  and  _3
REMARK    2  A    between atoms: _3  and  _4
REMARK    3  A    between atoms: _3  and  _6
REMARK    4  A    between atoms: _9  and  _11
REMARK    5  A    between atoms: _11  and  _12
REMARK    6  A    between atoms: _11  and  _14
REMARK    7  A    between atoms: _17  and  _19
REMARK    8  A    between atoms: _19  and  _20
REMARK    9  A    between atoms: _19  and  _22
REMARK   10  A    between atoms: _22  and  _23
REMARK   11  A    between atoms: _26  and  _28
REMARK   12  A    between atoms: _28  and  _29
REMARK   13  A    between atoms: _31  and  _33
REMARK   14  A    between atoms: _33  and  _34
REMARK   15  A    between atoms: _33  and  _36
REMARK   16  A    between atoms: _36  and  _37
REMARK   17  A    between atoms: _37  and  _38
REMARK   18  A    between atoms: _38  and  _39
REMARK   19  A    between atoms: _48  and  _50
REMARK   20  A    between atoms: _50  and  _51
REMARK   21  A    between atoms: _53  and  _55
REMARK   22  A    between atoms: _55  and  _56
REMARK   23  A    between atoms: _55  and  _58
REMARK   24  A    between atoms: _58  and  _59
REMARK   25  A    between atoms: _64  and  _66
REMARK   26  A    between atoms: _66  and  _67
REMARK   27  A    between atoms: _66  and  _69
REMARK   28  A    between atoms: _69  and  _70
REMARK   29  A    between atoms: _76  and  _78
REMARK   30  A    between atoms: _78  and  _79
REMARK   31  A    between atoms: _81  and  _83
REMARK   32  A    between atoms: _83  and  _84
REMARK   33  A    between atoms: _83  and  _86
REMARK   34  A    between atoms: _88  and  _90
REMARK   35  A    between atoms: _90  and  _91
REMARK   36  A    between atoms: _90  and  _93
REMARK   37  A    between atoms: _96  and  _98
REMARK   38  A    between atoms: _98  and  _99
REMARK   39  A    between atoms: _98  and  _101
REMARK   40  A    between atoms: _101  and  _102
REMARK   41  A    between atoms: _107  and  _108
REMARK   42  A    between atoms: _110  and  _112
REMARK   43  A    between atoms: _112  and  _113
REMARK   44  A    between atoms: _112  and  _115
REMARK   45  A    between atoms: _115  and  _116
REMARK   46  A    between atoms: _121  and  _123
REMARK   47  A    between atoms: _123  and  _124
REMARK   48  A    between atoms: _123  and  _126
REMARK   49  A    between atoms: _126  and  _127
REMARK   50  A    between atoms: _132  and  _134
REMARK   51  A    between atoms: _134  and  _135
REMARK   52  A    between atoms: _134  and  _137
REMARK   53  A    between atoms: _139  and  _141
REMARK   54  A    between atoms: _141  and  _142
REMARK   55  A    between atoms: _145  and  _147
REMARK   56  A    between atoms: _147  and  _148
REMARK   57  A    between atoms: _147  and  _150
REMARK   58  A    between atoms: _153  and  _155
REMARK   59  A    between atoms: _155  and  _156
REMARK   60  A    between atoms: _155  and  _158
REMARK   61  A    between atoms: _158  and  _159
REMARK   62  A    between atoms: _159  and  _160
REMARK   63  A    between atoms: _160  and  _161
REMARK   64  A    between atoms: _161  and  _162
REMARK   65  A    between atoms: _166  and  _168
REMARK   66  A    between atoms: _168  and  _169
REMARK   67  A    between atoms: _168  and  _171
REMARK   68  A    between atoms: _171  and  _172
REMARK   69  A    between atoms: _174  and  _176
REMARK   70  A    between atoms: _176  and  _177
REMARK   71  A    between atoms: _176  and  _179
REMARK   72  A    between atoms: _179  and  _180
REMARK   73  A    between atoms: _183  and  _185
REMARK   74  A    between atoms: _185  and  _186
REMARK   75  A    between atoms: _185  and  _188
REMARK   76  A    between atoms: _188  and  _189
REMARK   77  A    between atoms: _192  and  _194
REMARK   78  A    between atoms: _194  and  _195
REMARK   79  A    between atoms: _194  and  _197
REMARK   80  A    between atoms: _197  and  _198
REMARK   81  A    between atoms: _198  and  _199
REMARK   82  A    between atoms: _202  and  _204
REMARK   83  A    between atoms: _204  and  _205
REMARK   84  A    between atoms: _204  and  _207
REMARK   85  A    between atoms: _210  and  _212
REMARK   86  A    between atoms: _212  and  _213
REMARK   87  A    between atoms: _212  and  _215
REMARK   88  A    between atoms: _215  and  _216
REMARK   89  A    between atoms: _216  and  _217
REMARK   90  A    between atoms: _222  and  _224
REMARK   91  A    between atoms: _224  and  _225
REMARK   92  A    between atoms: _224  and  _227
REMARK   93  A    between atoms: _227  and  _228
REMARK   94  A    between atoms: _234  and  _236
REMARK   95  A    between atoms: _236  and  _237
REMARK   96  A    between atoms: _236  and  _239
REMARK   97  A    between atoms: _239  and  _240
REMARK   98  A    between atoms: _243  and  _245
REMARK   99  A    between atoms: _245  and  _246
REMARK  100  A    between atoms: _245  and  _248
REMARK  101  A    between atoms: _248  and  _249
REMARK  102  A    between atoms: _252  and  _254
REMARK  103  A    between atoms: _254  and  _255
REMARK  104  A    between atoms: _254  and  _257
REMARK  105  A    between atoms: _257  and  _258
REMARK  106  A    between atoms: _258  and  _259
REMARK  107  A    between atoms: _262  and  _264
REMARK  108  A    between atoms: _264  and  _265
REMARK  109  A    between atoms: _267  and  _269
REMARK  110  A    between atoms: _269  and  _270
REMARK  111  A    between atoms: _269  and  _272
REMARK  112  A    between atoms: _272  and  _273
REMARK  113  A    between atoms: _276  and  _278
REMARK  114  A    between atoms: _278  and  _279
REMARK  115  A    between atoms: _278  and  _281
REMARK  116  A    between atoms: _281  and  _282
REMARK  117  A    between atoms: _285  and  _287
REMARK  118  A    between atoms: _287  and  _288
REMARK  119  A    between atoms: _287  and  _290
REMARK  120  A    between atoms: _290  and  _291
REMARK  121  A    between atoms: _291  and  _292
REMARK  122  A    between atoms: _294  and  _296
REMARK  123  A    between atoms: _296  and  _297
REMARK  124  A    between atoms: _296  and  _299
REMARK  125  A    between atoms: _299  and  _300
REMARK  126  A    between atoms: _300  and  _301
REMARK  127  A    between atoms: _301  and  _302
REMARK  128  A    between atoms: _302  and  _303
REMARK  129  A    between atoms: _307  and  _309
REMARK  130  A    between atoms: _309  and  _310
REMARK  131  A    between atoms: _309  and  _312
REMARK  132  A    between atoms: _312  and  _313
REMARK  133  A    between atoms: _319  and  _321
REMARK  134  A    between atoms: _321  and  _322
REMARK  135  A    between atoms: _321  and  _324
REMARK  136  A    between atoms: _327  and  _329
REMARK  137  A    between atoms: _329  and  _330
REMARK  138  A    between atoms: _329  and  _332
REMARK  139  A    between atoms: _332  and  _333
REMARK  140  A    between atoms: _336  and  _338
REMARK  141  A    between atoms: _338  and  _339
REMARK  142  A    between atoms: _338  and  _341
REMARK  143  A    between atoms: _341  and  _342
REMARK  144  A    between atoms: _344  and  _346
REMARK  145  A    between atoms: _346  and  _347
REMARK  146  A    between atoms: _346  and  _349
REMARK  147  A    between atoms: _349  and  _350
REMARK  148  A    between atoms: _353  and  _355
REMARK  149  A    between atoms: _355  and  _356
REMARK  150  A    between atoms: _358  and  _360
REMARK  151  A    between atoms: _360  and  _361
REMARK  152  A    between atoms: _360  and  _363
REMARK  153  A    between atoms: _363  and  _364
REMARK  154  A    between atoms: _367  and  _369
REMARK  155  A    between atoms: _369  and  _370
REMARK  156  A    between atoms: _369  and  _372
REMARK  157  A    between atoms: _375  and  _376
REMARK  158  A    between atoms: _381  and  _383
REMARK  159  A    between atoms: _383  and  _384
REMARK  160  A    between atoms: _383  and  _386
REMARK  161  A    between atoms: _386  and  _387
REMARK  162  A    between atoms: _390  and  _392
REMARK  163  A    between atoms: _392  and  _393
REMARK  164  A    between atoms: _392  and  _395
REMARK  165  A    between atoms: _398  and  _400
REMARK  166  A    between atoms: _400  and  _401
REMARK  167  A    between atoms: _400  and  _403
REMARK  168  A    between atoms: _406  and  _408
REMARK  169  A    between atoms: _408  and  _409
REMARK  170  A    between atoms: _408  and  _411
REMARK  171  A    between atoms: _411  and  _412
REMARK  172  A    between atoms: _416  and  _417
REMARK  173  A    between atoms: _422  and  _424
REMARK  174  A    between atoms: _424  and  _425
REMARK  175  A    between atoms: _424  and  _427
REMARK  176  A    between atoms: _427  and  _428
REMARK  177  A    between atoms: _433  and  _434
REMARK  178  A    between atoms: _436  and  _438
REMARK  179  A    between atoms: _438  and  _439
REMARK  180  A    between atoms: _438  and  _441
REMARK  181  A    between atoms: _441  and  _442
REMARK  182  A    between atoms: _442  and  _443
REMARK  183  A    between atoms: _445  and  _447
REMARK  184  A    between atoms: _447  and  _448
REMARK  185  A    between atoms: _447  and  _450
REMARK  186  A    between atoms: _450  and  _451
REMARK  187  A    between atoms: _451  and  _452
REMARK  188  A    between atoms: _452  and  _453
REMARK  189  A    between atoms: _453  and  _454
REMARK  190  A    between atoms: _458  and  _460
REMARK  191  A    between atoms: _460  and  _461
REMARK  192  A    between atoms: _460  and  _463
REMARK  193  A    between atoms: _463  and  _464
REMARK  194  A    between atoms: _469  and  _471
REMARK  195  A    between atoms: _471  and  _472
REMARK  196  A    between atoms: _474  and  _476
REMARK  197  A    between atoms: _476  and  _477
REMARK  198  A    between atoms: _476  and  _479
REMARK  199  A    between atoms: _479  and  _480
REMARK  200  A    between atoms: _483  and  _485
REMARK  201  A    between atoms: _485  and  _486
REMARK  202  A    between atoms: _485  and  _488
REMARK  203  A    between atoms: _488  and  _489
REMARK  204  A    between atoms: _494  and  _496
REMARK  205  A    between atoms: _496  and  _497
REMARK  206  A    between atoms: _496  and  _499
REMARK  207  A    between atoms: _499  and  _500
REMARK  208  A    between atoms: _503  and  _505
REMARK  209  A    between atoms: _505  and  _506
REMARK  210  A    between atoms: _505  and  _508
REMARK  211  A    between atoms: _508  and  _509
REMARK  212  A    between atoms: _515  and  _517
REMARK  213  A    between atoms: _517  and  _518
REMARK  214  A    between atoms: _517  and  _520
REMARK  215  A    between atoms: _520  and  _521
REMARK  216  A    between atoms: _526  and  _528
REMARK  217  A    between atoms: _528  and  _529
REMARK  218  A    between atoms: _528  and  _531
REMARK  219  A    between atoms: _531  and  _532
REMARK  220  A    between atoms: _532  and  _533
REMARK  221  A    between atoms: _533  and  _534
REMARK  222  A    between atoms: _543  and  _545
REMARK  223  A    between atoms: _545  and  _546
REMARK  224  A    between atoms: _545  and  _548
REMARK  225  A    between atoms: _548  and  _549
REMARK  226  A    between atoms: _554  and  _556
REMARK  227  A    between atoms: _556  and  _557
REMARK  228  A    between atoms: _556  and  _559
REMARK  229  A    between atoms: _561  and  _563
REMARK  230  A    between atoms: _563  and  _564
REMARK  231  A    between atoms: _563  and  _566
REMARK  232  A    between atoms: _566  and  _567
REMARK  233  A    between atoms: _567  and  _568
REMARK  234  A    between atoms: _570  and  _572
REMARK  235  A    between atoms: _572  and  _573
REMARK  236  A    between atoms: _572  and  _575
REMARK  237  A    between atoms: _575  and  _576
REMARK  238  A    between atoms: _579  and  _581
REMARK  239  A    between atoms: _581  and  _582
REMARK  240  A    between atoms: _581  and  _584
REMARK  241  A    between atoms: _584  and  _585
REMARK  242  A    between atoms: _585  and  _586
REMARK  243  A    between atoms: _586  and  _587
REMARK  244  A    between atoms: _587  and  _588
REMARK  245  A    between atoms: _592  and  _594
REMARK  246  A    between atoms: _594  and  _595
REMARK  247  A    between atoms: _594  and  _597
REMARK  248  A    between atoms: _600  and  _602
REMARK  249  A    between atoms: _602  and  _603
REMARK  250  A    between atoms: _606  and  _608
REMARK  251  A    between atoms: _608  and  _609
REMARK  252  A    between atoms: _608  and  _611
REMARK  253  A    between atoms: _611  and  _612
REMARK  254  A    between atoms: _615  and  _617
REMARK  255  A    between atoms: _617  and  _618
REMARK  256  A    between atoms: _617  and  _620
REMARK  257  A    between atoms: _620  and  _621
REMARK  258  A    between atoms: _627  and  _629
REMARK  259  A    between atoms: _629  and  _630
REMARK                            x       y       z     vdW  Elec       q    Type
REMARK                         _______ _______ _______ _____ _____    ______ ____
ROOT
ATOM      1  O   HOH     1      26.637  -2.523  -9.053  0.00  0.00    +0.000 OA
ENDROOT
TORSDOF 0
REMARK  Name = ../refined-set-2016/3u6h/3u6h_pocket.pdb
REMARK  259 active torsions:
REMARK  status: ('A' for Active; 'I' for Inactive)
REMARK    1  A    between atoms: _1  and  _3
REMARK    2  A    between atoms: _3  and  _4
REMARK    3  A    between atoms: _3  and  _6
REMARK    4  A    between atoms: _9  and  _11
REMARK    5  A    between atoms: _11  and  _12
REMARK    6  A    between atoms: _11  and  _14
REMARK    7  A    between atoms: _17  and  _19
REMARK    8  A    between atoms: _19  and  _20
REMARK    9  A    between atoms: _19  and  _22
REMARK   10  A    between atoms: _22  and  _23
REMARK   11  A    between atoms: _26  and  _28
REMARK   12  A    between atoms: _28  and  _29
REMARK   13  A    between atoms: _31  and  _33
REMARK   14  A    between atoms: _33  and  _34
REMARK   15  A    between atoms: _33  and  _36
REMARK   16  A    between atoms: _36  and  _37
REMARK   17  A    between atoms: _37  and  _38
REMARK   18  A    between atoms: _38  and  _39
REMARK   19  A    between atoms: _48  and  _50
REMARK   20  A    between atoms: _50  and  _51
REMARK   21  A    between atoms: _53  and  _55
REMARK   22  A    between atoms: _55  and  _56
REMARK   23  A    between atoms: _55  and  _58
REMARK   24  A    between atoms: _58  and  _59
REMARK   25  A    between atoms: _64  and  _66
REMARK   26  A    between atoms: _66  and  _67
REMARK   27  A    between atoms: _66  and  _69
REMARK   28  A    between atoms: _69  and  _70
REMARK   29  A    between atoms: _76  and  _78
REMARK   30  A    between atoms: _78  and  _79
REMARK   31  A    between atoms: _81  and  _83
REMARK   32  A    between atoms: _83  and  _84
REMARK   33  A    between atoms: _83  and  _86
REMARK   34  A    between atoms: _88  and  _90
REMARK   35  A    between atoms: _90  and  _91
REMARK   36  A    between atoms: _90  and  _93
REMARK   37  A    between atoms: _96  and  _98
REMARK   38  A    between atoms: _98  and  _99
REMARK   39  A    between atoms: _98  and  _101
REMARK   40  A    between atoms: _101  and  _102
REMARK   41  A    between atoms: _107  and  _108
REMARK   42  A    between atoms: _110  and  _112
REMARK   43  A    between atoms: _112  and  _113
REMARK   44  A    between atoms: _112  and  _115
REMARK   45  A    between atoms: _115  and  _116
REMARK   46  A    between atoms: _121  and  _123
REMARK   47  A    between atoms: _123  and  _124
REMARK   48  A    between atoms: _123  and  _126
REMARK   49  A    between atoms: _126  and  _127
REMARK   50  A    between atoms: _132  and  _134
REMARK   51  A    between atoms: _134  and  _135
REMARK   52  A    between atoms: _134  and  _137
REMARK   53  A    between atoms: _139  and  _141
REMARK   54  A    between atoms: _141  and  _142
REMARK   55  A    between atoms: _145  and  _147
REMARK   56  A    between atoms: _147  and  _148
REMARK   57  A    between atoms: _147  and  _150
REMARK   58  A    between atoms: _153  and  _155
REMARK   59  A    between atoms: _155  and  _156
REMARK   60  A    between atoms: _155  and  _158
REMARK   61  A    between atoms: _158  and  _159
REMARK   62  A    between atoms: _159  and  _160
REMARK   63  A    between atoms: _160  and  _161
REMARK   64  A    between atoms: _161  and  _162
REMARK   65  A    between atoms: _166  and  _168
REMARK   66  A    between atoms: _168  and  _169
REMARK   67  A    between atoms: _168  and  _171
REMARK   68  A    between atoms: _171  and  _172
REMARK   69  A    between atoms: _174  and  _176
REMARK   70  A    between atoms: _176  and  _177
REMARK   71  A    between atoms: _176  and  _179
REMARK   72  A    between atoms: _179  and  _180
REMARK   73  A    between atoms: _183  and  _185
REMARK   74  A    between atoms: _185  and  _186
REMARK   75  A    between atoms: _185  and  _188
REMARK   76  A    between atoms: _188  and  _189
REMARK   77  A    between atoms: _192  and  _194
REMARK   78  A    between atoms: _194  and  _195
REMARK   79  A    between atoms: _194  and  _197
REMARK   80  A    between atoms: _197  and  _198
REMARK   81  A    between atoms: _198  and  _199
REMARK   82  A    between atoms: _202  and  _204
REMARK   83  A    between atoms: _204  and  _205
REMARK   84  A    between atoms: _204  and  _207
REMARK   85  A    between atoms: _210  and  _212
REMARK   86  A    between atoms: _212  and  _213
REMARK   87  A    between atoms: _212  and  _215
REMARK   88  A    between atoms: _215  and  _216
REMARK   89  A    between atoms: _216  and  _217
REMARK   90  A    between atoms: _222  and  _224
REMARK   91  A    between atoms: _224  and  _225
REMARK   92  A    between atoms: _224  and  _227
REMARK   93  A    between atoms: _227  and  _228
REMARK   94  A    between atoms: _234  and  _236
REMARK   95  A    between atoms: _236  and  _237
REMARK   96  A    between atoms: _236  and  _239
REMARK   97  A    between atoms: _239  and  _240
REMARK   98  A    between atoms: _243  and  _245
REMARK   99  A    between atoms: _245  and  _246
REMARK  100  A    between atoms: _245  and  _248
REMARK  101  A    between atoms: _248  and  _249
REMARK  102  A    between atoms: _252  and  _254
REMARK  103  A    between atoms: _254  and  _255
REMARK  104  A    between atoms: _254  and  _257
REMARK  105  A    between atoms: _257  and  _258
REMARK  106  A    between atoms: _258  and  _259
REMARK  107  A    between atoms: _262  and  _264
REMARK  108  A    between atoms: _264  and  _265
REMARK  109  A    between atoms: _267  and  _269
REMARK  110  A    between atoms: _269  and  _270
REMARK  111  A    between atoms: _269  and  _272
REMARK  112  A    between atoms: _272  and  _273
REMARK  113  A    between atoms: _276  and  _278
REMARK  114  A    between atoms: _278  and  _279
REMARK  115  A    between atoms: _278  and  _281
REMARK  116  A    between atoms: _281  and  _282
REMARK  117  A    between atoms: _285  and  _287
REMARK  118  A    between atoms: _287  and  _288
REMARK  119  A    between atoms: _287  and  _290
REMARK  120  A    between atoms: _290  and  _291
REMARK  121  A    between atoms: _291  and  _292
REMARK  122  A    between atoms: _294  and  _296
REMARK  123  A    between atoms: _296  and  _297
REMARK  124  A    between atoms: _296  and  _299
REMARK  125  A    between atoms: _299  and  _300
REMARK  126  A    between atoms: _300  and  _301
REMARK  127  A    between atoms: _301  and  _302
REMARK  128  A    between atoms: _302  and  _303
REMARK  129  A    between atoms: _307  and  _309
REMARK  130  A    between atoms: _309  and  _310
REMARK  131  A    between atoms: _309  and  _312
REMARK  132  A    between atoms: _312  and  _313
REMARK  133  A    between atoms: _319  and  _321
REMARK  134  A    between atoms: _321  and  _322
REMARK  135  A    between atoms: _321  and  _324
REMARK  136  A    between atoms: _327  and  _329
REMARK  137  A    between atoms: _329  and  _330
REMARK  138  A    between atoms: _329  and  _332
REMARK  139  A    between atoms: _332  and  _333
REMARK  140  A    between atoms: _336  and  _338
REMARK  141  A    between atoms: _338  and  _339
REMARK  142  A    between atoms: _338  and  _341
REMARK  143  A    between atoms: _341  and  _342
REMARK  144  A    between atoms: _344  and  _346
REMARK  145  A    between atoms: _346  and  _347
REMARK  146  A    between atoms: _346  and  _349
REMARK  147  A    between atoms: _349  and  _350
REMARK  148  A    between atoms: _353  and  _355
REMARK  149  A    between atoms: _355  and  _356
REMARK  150  A    between atoms: _358  and  _360
REMARK  151  A    between atoms: _360  and  _361
REMARK  152  A    between atoms: _360  and  _363
REMARK  153  A    between atoms: _363  and  _364
REMARK  154  A    between atoms: _367  and  _369
REMARK  155  A    between atoms: _369  and  _370
REMARK  156  A    between atoms: _369  and  _372
REMARK  157  A    between atoms: _375  and  _376
REMARK  158  A    between atoms: _381  and  _383
REMARK  159  A    between atoms: _383  and  _384
REMARK  160  A    between atoms: _383  and  _386
REMARK  161  A    between atoms: _386  and  _387
REMARK  162  A    between atoms: _390  and  _392
REMARK  163  A    between atoms: _392  and  _393
REMARK  164  A    between atoms: _392  and  _395
REMARK  165  A    between atoms: _398  and  _400
REMARK  166  A    between atoms: _400  and  _401
REMARK  167  A    between atoms: _400  and  _403
REMARK  168  A    between atoms: _406  and  _408
REMARK  169  A    between atoms: _408  and  _409
REMARK  170  A    between atoms: _408  and  _411
REMARK  171  A    between atoms: _411  and  _412
REMARK  172  A    between atoms: _416  and  _417
REMARK  173  A    between atoms: _422  and  _424
REMARK  174  A    between atoms: _424  and  _425
REMARK  175  A    between atoms: _424  and  _427
REMARK  176  A    between atoms: _427  and  _428
REMARK  177  A    between atoms: _433  and  _434
REMARK  178  A    between atoms: _436  and  _438
REMARK  179  A    between atoms: _438  and  _439
REMARK  180  A    between atoms: _438  and  _441
REMARK  181  A    between atoms: _441  and  _442
REMARK  182  A    between atoms: _442  and  _443
REMARK  183  A    between atoms: _445  and  _447
REMARK  184  A    between atoms: _447  and  _448
REMARK  185  A    between atoms: _447  and  _450
REMARK  186  A    between atoms: _450  and  _451
REMARK  187  A    between atoms: _451  and  _452
REMARK  188  A    between atoms: _452  and  _453
REMARK  189  A    between atoms: _453  and  _454
REMARK  190  A    between atoms: _458  and  _460
REMARK  191  A    between atoms: _460  and  _461
REMARK  192  A    between atoms: _460  and  _463
REMARK  193  A    between atoms: _463  and  _464
REMARK  194  A    between atoms: _469  and  _471
REMARK  195  A    between atoms: _471  and  _472
REMARK  196  A    between atoms: _474  and  _476
REMARK  197  A    between atoms: _476  and  _477
REMARK  198  A    between atoms: _476  and  _479
REMARK  199  A    between atoms: _479  and  _480
REMARK  200  A    between atoms: _483  and  _485
REMARK  201  A    between atoms: _485  and  _486
REMARK  202  A    between atoms: _485  and  _488
REMARK  203  A    between atoms: _488  and  _489
REMARK  204  A    between atoms: _494  and  _496
REMARK  205  A    between atoms: _496  and  _497
REMARK  206  A    between atoms: _496  and  _499
REMARK  207  A    between atoms: _499  and  _500
REMARK  208  A    between atoms: _503  and  _505
REMARK  209  A    between atoms: _505  and  _506
REMARK  210  A    between atoms: _505  and  _508
REMARK  211  A    between atoms: _508  and  _509
REMARK  212  A    between atoms: _515  and  _517
REMARK  213  A    between atoms: _517  and  _518
REMARK  214  A    between atoms: _517  and  _520
REMARK  215  A    between atoms: _520  and  _521
REMARK  216  A    between atoms: _526  and  _528
REMARK  217  A    between atoms: _528  and  _529
REMARK  218  A    between atoms: _528  and  _531
REMARK  219  A    between atoms: _531  and  _532
REMARK  220  A    between atoms: _532  and  _533
REMARK  221  A    between atoms: _533  and  _534
REMARK  222  A    between atoms: _543  and  _545
REMARK  223  A    between atoms: _545  and  _546
REMARK  224  A    between atoms: _545  and  _548
REMARK  225  A    between atoms: _548  and  _549
REMARK  226  A    between atoms: _554  and  _556
REMARK  227  A    between atoms: _556  and  _557
REMARK  228  A    between atoms: _556  and  _559
REMARK  229  A    between atoms: _561  and  _563
REMARK  230  A    between atoms: _563  and  _564
REMARK  231  A    between atoms: _563  and  _566
REMARK  232  A    between atoms: _566  and  _567
REMARK  233  A    between atoms: _567  and  _568
REMARK  234  A    between atoms: _570  and  _572
REMARK  235  A    between atoms: _572  and  _573
REMARK  236  A    between atoms: _572  and  _575
REMARK  237  A    between atoms: _575  and  _576
REMARK  238  A    between atoms: _579  and  _581
REMARK  239  A    between atoms: _581  and  _582
REMARK  240  A    between atoms: _581  and  _584
REMARK  241  A    between atoms: _584  and  _585
REMARK  242  A    between atoms: _585  and  _586
REMARK  243  A    between atoms: _586  and  _587
REMARK  244  A    between atoms: _587  and  _588
REMARK  245  A    between atoms: _592  and  _594
REMARK  246  A    between atoms: _594  and  _595
REMARK  247  A    between atoms: _594  and  _597
REMARK  248  A    between atoms: _600  and  _602
REMARK  249  A    between atoms: _602  and  _603
REMARK  250  A    between atoms: _606  and  _608
REMARK  251  A    between atoms: _608  and  _609
REMARK  252  A    between atoms: _608  and  _611
REMARK  253  A    between atoms: _611  and  _612
REMARK  254  A    between atoms: _615  and  _617
REMARK  255  A    between atoms: _617  and  _618
REMARK  256  A    between atoms: _617  and  _620
REMARK  257  A    between atoms: _620  and  _621
REMARK  258  A    between atoms: _627  and  _629
REMARK  259  A    between atoms: _629  and  _630
REMARK                            x       y       z     vdW  Elec       q    Type
REMARK                         _______ _______ _______ _____ _____    ______ ____
ROOT
ATOM      1  O   HOH     1      14.220   7.441 -21.366  0.00  0.00    +0.000 OA
ENDROOT
TORSDOF 0
REMARK  Name = ../refined-set-2016/3u6h/3u6h_pocket.pdb
REMARK  259 active torsions:
REMARK  status: ('A' for Active; 'I' for Inactive)
REMARK    1  A    between atoms: _1  and  _3
REMARK    2  A    between atoms: _3  and  _4
REMARK    3  A    between atoms: _3  and  _6
REMARK    4  A    between atoms: _9  and  _11
REMARK    5  A    between atoms: _11  and  _12
REMARK    6  A    between atoms: _11  and  _14
REMARK    7  A    between atoms: _17  and  _19
REMARK    8  A    between atoms: _19  and  _20
REMARK    9  A    between atoms: _19  and  _22
REMARK   10  A    between atoms: _22  and  _23
REMARK   11  A    between atoms: _26  and  _28
REMARK   12  A    between atoms: _28  and  _29
REMARK   13  A    between atoms: _31  and  _33
REMARK   14  A    between atoms: _33  and  _34
REMARK   15  A    between atoms: _33  and  _36
REMARK   16  A    between atoms: _36  and  _37
REMARK   17  A    between atoms: _37  and  _38
REMARK   18  A    between atoms: _38  and  _39
REMARK   19  A    between atoms: _48  and  _50
REMARK   20  A    between atoms: _50  and  _51
REMARK   21  A    between atoms: _53  and  _55
REMARK   22  A    between atoms: _55  and  _56
REMARK   23  A    between atoms: _55  and  _58
REMARK   24  A    between atoms: _58  and  _59
REMARK   25  A    between atoms: _64  and  _66
REMARK   26  A    between atoms: _66  and  _67
REMARK   27  A    between atoms: _66  and  _69
REMARK   28  A    between atoms: _69  and  _70
REMARK   29  A    between atoms: _76  and  _78
REMARK   30  A    between atoms: _78  and  _79
REMARK   31  A    between atoms: _81  and  _83
REMARK   32  A    between atoms: _83  and  _84
REMARK   33  A    between atoms: _83  and  _86
REMARK   34  A    between atoms: _88  and  _90
REMARK   35  A    between atoms: _90  and  _91
REMARK   36  A    between atoms: _90  and  _93
REMARK   37  A    between atoms: _96  and  _98
REMARK   38  A    between atoms: _98  and  _99
REMARK   39  A    between atoms: _98  and  _101
REMARK   40  A    between atoms: _101  and  _102
REMARK   41  A    between atoms: _107  and  _108
REMARK   42  A    between atoms: _110  and  _112
REMARK   43  A    between atoms: _112  and  _113
REMARK   44  A    between atoms: _112  and  _115
REMARK   45  A    between atoms: _115  and  _116
REMARK   46  A    between atoms: _121  and  _123
REMARK   47  A    between atoms: _123  and  _124
REMARK   48  A    between atoms: _123  and  _126
REMARK   49  A    between atoms: _126  and  _127
REMARK   50  A    between atoms: _132  and  _134
REMARK   51  A    between atoms: _134  and  _135
REMARK   52  A    between atoms: _134  and  _137
REMARK   53  A    between atoms: _139  and  _141
REMARK   54  A    between atoms: _141  and  _142
REMARK   55  A    between atoms: _145  and  _147
REMARK   56  A    between atoms: _147  and  _148
REMARK   57  A    between atoms: _147  and  _150
REMARK   58  A    between atoms: _153  and  _155
REMARK   59  A    between atoms: _155  and  _156
REMARK   60  A    between atoms: _155  and  _158
REMARK   61  A    between atoms: _158  and  _159
REMARK   62  A    between atoms: _159  and  _160
REMARK   63  A    between atoms: _160  and  _161
REMARK   64  A    between atoms: _161  and  _162
REMARK   65  A    between atoms: _166  and  _168
REMARK   66  A    between atoms: _168  and  _169
REMARK   67  A    between atoms: _168  and  _171
REMARK   68  A    between atoms: _171  and  _172
REMARK   69  A    between atoms: _174  and  _176
REMARK   70  A    between atoms: _176  and  _177
REMARK   71  A    between atoms: _176  and  _179
REMARK   72  A    between atoms: _179  and  _180
REMARK   73  A    between atoms: _183  and  _185
REMARK   74  A    between atoms: _185  and  _186
REMARK   75  A    between atoms: _185  and  _188
REMARK   76  A    between atoms: _188  and  _189
REMARK   77  A    between atoms: _192  and  _194
REMARK   78  A    between atoms: _194  and  _195
REMARK   79  A    between atoms: _194  and  _197
REMARK   80  A    between atoms: _197  and  _198
REMARK   81  A    between atoms: _198  and  _199
REMARK   82  A    between atoms: _202  and  _204
REMARK   83  A    between atoms: _204  and  _205
REMARK   84  A    between atoms: _204  and  _207
REMARK   85  A    between atoms: _210  and  _212
REMARK   86  A    between atoms: _212  and  _213
REMARK   87  A    between atoms: _212  and  _215
REMARK   88  A    between atoms: _215  and  _216
REMARK   89  A    between atoms: _216  and  _217
REMARK   90  A    between atoms: _222  and  _224
REMARK   91  A    between atoms: _224  and  _225
REMARK   92  A    between atoms: _224  and  _227
REMARK   93  A    between atoms: _227  and  _228
REMARK   94  A    between atoms: _234  and  _236
REMARK   95  A    between atoms: _236  and  _237
REMARK   96  A    between atoms: _236  and  _239
REMARK   97  A    between atoms: _239  and  _240
REMARK   98  A    between atoms: _243  and  _245
REMARK   99  A    between atoms: _245  and  _246
REMARK  100  A    between atoms: _245  and  _248
REMARK  101  A    between atoms: _248  and  _249
REMARK  102  A    between atoms: _252  and  _254
REMARK  103  A    between atoms: _254  and  _255
REMARK  104  A    between atoms: _254  and  _257
REMARK  105  A    between atoms: _257  and  _258
REMARK  106  A    between atoms: _258  and  _259
REMARK  107  A    between atoms: _262  and  _264
REMARK  108  A    between atoms: _264  and  _265
REMARK  109  A    between atoms: _267  and  _269
REMARK  110  A    between atoms: _269  and  _270
REMARK  111  A    between atoms: _269  and  _272
REMARK  112  A    between atoms: _272  and  _273
REMARK  113  A    between atoms: _276  and  _278
REMARK  114  A    between atoms: _278  and  _279
REMARK  115  A    between atoms: _278  and  _281
REMARK  116  A    between atoms: _281  and  _282
REMARK  117  A    between atoms: _285  and  _287
REMARK  118  A    between atoms: _287  and  _288
REMARK  119  A    between atoms: _287  and  _290
REMARK  120  A    between atoms: _290  and  _291
REMARK  121  A    between atoms: _291  and  _292
REMARK  122  A    between atoms: _294  and  _296
REMARK  123  A    between atoms: _296  and  _297
REMARK  124  A    between atoms: _296  and  _299
REMARK  125  A    between atoms: _299  and  _300
REMARK  126  A    between atoms: _300  and  _301
REMARK  127  A    between atoms: _301  and  _302
REMARK  128  A    between atoms: _302  and  _303
REMARK  129  A    between atoms: _307  and  _309
REMARK  130  A    between atoms: _309  and  _310
REMARK  131  A    between atoms: _309  and  _312
REMARK  132  A    between atoms: _312  and  _313
REMARK  133  A    between atoms: _319  and  _321
REMARK  134  A    between atoms: _321  and  _322
REMARK  135  A    between atoms: _321  and  _324
REMARK  136  A    between atoms: _327  and  _329
REMARK  137  A    between atoms: _329  and  _330
REMARK  138  A    between atoms: _329  and  _332
REMARK  139  A    between atoms: _332  and  _333
REMARK  140  A    between atoms: _336  and  _338
REMARK  141  A    between atoms: _338  and  _339
REMARK  142  A    between atoms: _338  and  _341
REMARK  143  A    between atoms: _341  and  _342
REMARK  144  A    between atoms: _344  and  _346
REMARK  145  A    between atoms: _346  and  _347
REMARK  146  A    between atoms: _346  and  _349
REMARK  147  A    between atoms: _349  and  _350
REMARK  148  A    between atoms: _353  and  _355
REMARK  149  A    between atoms: _355  and  _356
REMARK  150  A    between atoms: _358  and  _360
REMARK  151  A    between atoms: _360  and  _361
REMARK  152  A    between atoms: _360  and  _363
REMARK  153  A    between atoms: _363  and  _364
REMARK  154  A    between atoms: _367  and  _369
REMARK  155  A    between atoms: _369  and  _370
REMARK  156  A    between atoms: _369  and  _372
REMARK  157  A    between atoms: _375  and  _376
REMARK  158  A    between atoms: _381  and  _383
REMARK  159  A    between atoms: _383  and  _384
REMARK  160  A    between atoms: _383  and  _386
REMARK  161  A    between atoms: _386  and  _387
REMARK  162  A    between atoms: _390  and  _392
REMARK  163  A    between atoms: _392  and  _393
REMARK  164  A    between atoms: _392  and  _395
REMARK  165  A    between atoms: _398  and  _400
REMARK  166  A    between atoms: _400  and  _401
REMARK  167  A    between atoms: _400  and  _403
REMARK  168  A    between atoms: _406  and  _408
REMARK  169  A    between atoms: _408  and  _409
REMARK  170  A    between atoms: _408  and  _411
REMARK  171  A    between atoms: _411  and  _412
REMARK  172  A    between atoms: _416  and  _417
REMARK  173  A    between atoms: _422  and  _424
REMARK  174  A    between atoms: _424  and  _425
REMARK  175  A    between atoms: _424  and  _427
REMARK  176  A    between atoms: _427  and  _428
REMARK  177  A    between atoms: _433  and  _434
REMARK  178  A    between atoms: _436  and  _438
REMARK  179  A    between atoms: _438  and  _439
REMARK  180  A    between atoms: _438  and  _441
REMARK  181  A    between atoms: _441  and  _442
REMARK  182  A    between atoms: _442  and  _443
REMARK  183  A    between atoms: _445  and  _447
REMARK  184  A    between atoms: _447  and  _448
REMARK  185  A    between atoms: _447  and  _450
REMARK  186  A    between atoms: _450  and  _451
REMARK  187  A    between atoms: _451  and  _452
REMARK  188  A    between atoms: _452  and  _453
REMARK  189  A    between atoms: _453  and  _454
REMARK  190  A    between atoms: _458  and  _460
REMARK  191  A    between atoms: _460  and  _461
REMARK  192  A    between atoms: _460  and  _463
REMARK  193  A    between atoms: _463  and  _464
REMARK  194  A    between atoms: _469  and  _471
REMARK  195  A    between atoms: _471  and  _472
REMARK  196  A    between atoms: _474  and  _476
REMARK  197  A    between atoms: _476  and  _477
REMARK  198  A    between atoms: _476  and  _479
REMARK  199  A    between atoms: _479  and  _480
REMARK  200  A    between atoms: _483  and  _485
REMARK  201  A    between atoms: _485  and  _486
REMARK  202  A    between atoms: _485  and  _488
REMARK  203  A    between atoms: _488  and  _489
REMARK  204  A    between atoms: _494  and  _496
REMARK  205  A    between atoms: _496  and  _497
REMARK  206  A    between atoms: _496  and  _499
REMARK  207  A    between atoms: _499  and  _500
REMARK  208  A    between atoms: _503  and  _505
REMARK  209  A    between atoms: _505  and  _506
REMARK  210  A    between atoms: _505  and  _508
REMARK  211  A    between atoms: _508  and  _509
REMARK  212  A    between atoms: _515  and  _517
REMARK  213  A    between atoms: _517  and  _518
REMARK  214  A    between atoms: _517  and  _520
REMARK  215  A    between atoms: _520  and  _521
REMARK  216  A    between atoms: _526  and  _528
REMARK  217  A    between atoms: _528  and  _529
REMARK  218  A    between atoms: _528  and  _531
REMARK  219  A    between atoms: _531  and  _532
REMARK  220  A    between atoms: _532  and  _533
REMARK  221  A    between atoms: _533  and  _534
REMARK  222  A    between atoms: _543  and  _545
REMARK  223  A    between atoms: _545  and  _546
REMARK  224  A    between atoms: _545  and  _548
REMARK  225  A    between atoms: _548  and  _549
REMARK  226  A    between atoms: _554  and  _556
REMARK  227  A    between atoms: _556  and  _557
REMARK  228  A    between atoms: _556  and  _559
REMARK  229  A    between atoms: _561  and  _563
REMARK  230  A    between atoms: _563  and  _564
REMARK  231  A    between atoms: _563  and  _566
REMARK  232  A    between atoms: _566  and  _567
REMARK  233  A    between atoms: _567  and  _568
REMARK  234  A    between atoms: _570  and  _572
REMARK  235  A    between atoms: _572  and  _573
REMARK  236  A    between atoms: _572  and  _575
REMARK  237  A    between atoms: _575  and  _576
REMARK  238  A    between atoms: _579  and  _581
REMARK  239  A    between atoms: _581  and  _582
REMARK  240  A    between atoms: _581  and  _584
REMARK  241  A    between atoms: _584  and  _585
REMARK  242  A    between atoms: _585  and  _586
REMARK  243  A    between atoms: _586  and  _587
REMARK  244  A    between atoms: _587  and  _588
REMARK  245  A    between atoms: _592  and  _594
REMARK  246  A    between atoms: _594  and  _595
REMARK  247  A    between atoms: _594  and  _597
REMARK  248  A    between atoms: _600  and  _602
REMARK  249  A    between atoms: _602  and  _603
REMARK  250  A    between atoms: _606  and  _608
REMARK  251  A    between atoms: _608  and  _609
REMARK  252  A    between atoms: _608  and  _611
REMARK  253  A    between atoms: _611  and  _612
REMARK  254  A    between atoms: _615  and  _617
REMARK  255  A    between atoms: _617  and  _618
REMARK  256  A    between atoms: _617  and  _620
REMARK  257  A    between atoms: _620  and  _621
REMARK  258  A    between atoms: _627  and  _629
REMARK  259  A    between atoms: _629  and  _630
REMARK                            x       y       z     vdW  Elec       q    Type
REMARK                         _______ _______ _______ _____ _____    ______ ____
ROOT
ATOM      1  O   HOH     1      22.794   5.042 -11.328  0.00  0.00    +0.000 OA
ENDROOT
TORSDOF 0
REMARK  Name = ../refined-set-2016/3u6h/3u6h_pocket.pdb
REMARK  259 active torsions:
REMARK  status: ('A' for Active; 'I' for Inactive)
REMARK    1  A    between atoms: _1  and  _3
REMARK    2  A    between atoms: _3  and  _4
REMARK    3  A    between atoms: _3  and  _6
REMARK    4  A    between atoms: _9  and  _11
REMARK    5  A    between atoms: _11  and  _12
REMARK    6  A    between atoms: _11  and  _14
REMARK    7  A    between atoms: _17  and  _19
REMARK    8  A    between atoms: _19  and  _20
REMARK    9  A    between atoms: _19  and  _22
REMARK   10  A    between atoms: _22  and  _23
REMARK   11  A    between atoms: _26  and  _28
REMARK   12  A    between atoms: _28  and  _29
REMARK   13  A    between atoms: _31  and  _33
REMARK   14  A    between atoms: _33  and  _34
REMARK   15  A    between atoms: _33  and  _36
REMARK   16  A    between atoms: _36  and  _37
REMARK   17  A    between atoms: _37  and  _38
REMARK   18  A    between atoms: _38  and  _39
REMARK   19  A    between atoms: _48  and  _50
REMARK   20  A    between atoms: _50  and  _51
REMARK   21  A    between atoms: _53  and  _55
REMARK   22  A    between atoms: _55  and  _56
REMARK   23  A    between atoms: _55  and  _58
REMARK   24  A    between atoms: _58  and  _59
REMARK   25  A    between atoms: _64  and  _66
REMARK   26  A    between atoms: _66  and  _67
REMARK   27  A    between atoms: _66  and  _69
REMARK   28  A    between atoms: _69  and  _70
REMARK   29  A    between atoms: _76  and  _78
REMARK   30  A    between atoms: _78  and  _79
REMARK   31  A    between atoms: _81  and  _83
REMARK   32  A    between atoms: _83  and  _84
REMARK   33  A    between atoms: _83  and  _86
REMARK   34  A    between atoms: _88  and  _90
REMARK   35  A    between atoms: _90  and  _91
REMARK   36  A    between atoms: _90  and  _93
REMARK   37  A    between atoms: _96  and  _98
REMARK   38  A    between atoms: _98  and  _99
REMARK   39  A    between atoms: _98  and  _101
REMARK   40  A    between atoms: _101  and  _102
REMARK   41  A    between atoms: _107  and  _108
REMARK   42  A    between atoms: _110  and  _112
REMARK   43  A    between atoms: _112  and  _113
REMARK   44  A    between atoms: _112  and  _115
REMARK   45  A    between atoms: _115  and  _116
REMARK   46  A    between atoms: _121  and  _123
REMARK   47  A    between atoms: _123  and  _124
REMARK   48  A    between atoms: _123  and  _126
REMARK   49  A    between atoms: _126  and  _127
REMARK   50  A    between atoms: _132  and  _134
REMARK   51  A    between atoms: _134  and  _135
REMARK   52  A    between atoms: _134  and  _137
REMARK   53  A    between atoms: _139  and  _141
REMARK   54  A    between atoms: _141  and  _142
REMARK   55  A    between atoms: _145  and  _147
REMARK   56  A    between atoms: _147  and  _148
REMARK   57  A    between atoms: _147  and  _150
REMARK   58  A    between atoms: _153  and  _155
REMARK   59  A    between atoms: _155  and  _156
REMARK   60  A    between atoms: _155  and  _158
REMARK   61  A    between atoms: _158  and  _159
REMARK   62  A    between atoms: _159  and  _160
REMARK   63  A    between atoms: _160  and  _161
REMARK   64  A    between atoms: _161  and  _162
REMARK   65  A    between atoms: _166  and  _168
REMARK   66  A    between atoms: _168  and  _169
REMARK   67  A    between atoms: _168  and  _171
REMARK   68  A    between atoms: _171  and  _172
REMARK   69  A    between atoms: _174  and  _176
REMARK   70  A    between atoms: _176  and  _177
REMARK   71  A    between atoms: _176  and  _179
REMARK   72  A    between atoms: _179  and  _180
REMARK   73  A    between atoms: _183  and  _185
REMARK   74  A    between atoms: _185  and  _186
REMARK   75  A    between atoms: _185  and  _188
REMARK   76  A    between atoms: _188  and  _189
REMARK   77  A    between atoms: _192  and  _194
REMARK   78  A    between atoms: _194  and  _195
REMARK   79  A    between atoms: _194  and  _197
REMARK   80  A    between atoms: _197  and  _198
REMARK   81  A    between atoms: _198  and  _199
REMARK   82  A    between atoms: _202  and  _204
REMARK   83  A    between atoms: _204  and  _205
REMARK   84  A    between atoms: _204  and  _207
REMARK   85  A    between atoms: _210  and  _212
REMARK   86  A    between atoms: _212  and  _213
REMARK   87  A    between atoms: _212  and  _215
REMARK   88  A    between atoms: _215  and  _216
REMARK   89  A    between atoms: _216  and  _217
REMARK   90  A    between atoms: _222  and  _224
REMARK   91  A    between atoms: _224  and  _225
REMARK   92  A    between atoms: _224  and  _227
REMARK   93  A    between atoms: _227  and  _228
REMARK   94  A    between atoms: _234  and  _236
REMARK   95  A    between atoms: _236  and  _237
REMARK   96  A    between atoms: _236  and  _239
REMARK   97  A    between atoms: _239  and  _240
REMARK   98  A    between atoms: _243  and  _245
REMARK   99  A    between atoms: _245  and  _246
REMARK  100  A    between atoms: _245  and  _248
REMARK  101  A    between atoms: _248  and  _249
REMARK  102  A    between atoms: _252  and  _254
REMARK  103  A    between atoms: _254  and  _255
REMARK  104  A    between atoms: _254  and  _257
REMARK  105  A    between atoms: _257  and  _258
REMARK  106  A    between atoms: _258  and  _259
REMARK  107  A    between atoms: _262  and  _264
REMARK  108  A    between atoms: _264  and  _265
REMARK  109  A    between atoms: _267  and  _269
REMARK  110  A    between atoms: _269  and  _270
REMARK  111  A    between atoms: _269  and  _272
REMARK  112  A    between atoms: _272  and  _273
REMARK  113  A    between atoms: _276  and  _278
REMARK  114  A    between atoms: _278  and  _279
REMARK  115  A    between atoms: _278  and  _281
REMARK  116  A    between atoms: _281  and  _282
REMARK  117  A    between atoms: _285  and  _287
REMARK  118  A    between atoms: _287  and  _288
REMARK  119  A    between atoms: _287  and  _290
REMARK  120  A    between atoms: _290  and  _291
REMARK  121  A    between atoms: _291  and  _292
REMARK  122  A    between atoms: _294  and  _296
REMARK  123  A    between atoms: _296  and  _297
REMARK  124  A    between atoms: _296  and  _299
REMARK  125  A    between atoms: _299  and  _300
REMARK  126  A    between atoms: _300  and  _301
REMARK  127  A    between atoms: _301  and  _302
REMARK  128  A    between atoms: _302  and  _303
REMARK  129  A    between atoms: _307  and  _309
REMARK  130  A    between atoms: _309  and  _310
REMARK  131  A    between atoms: _309  and  _312
REMARK  132  A    between atoms: _312  and  _313
REMARK  133  A    between atoms: _319  and  _321
REMARK  134  A    between atoms: _321  and  _322
REMARK  135  A    between atoms: _321  and  _324
REMARK  136  A    between atoms: _327  and  _329
REMARK  137  A    between atoms: _329  and  _330
REMARK  138  A    between atoms: _329  and  _332
REMARK  139  A    between atoms: _332  and  _333
REMARK  140  A    between atoms: _336  and  _338
REMARK  141  A    between atoms: _338  and  _339
REMARK  142  A    between atoms: _338  and  _341
REMARK  143  A    between atoms: _341  and  _342
REMARK  144  A    between atoms: _344  and  _346
REMARK  145  A    between atoms: _346  and  _347
REMARK  146  A    between atoms: _346  and  _349
REMARK  147  A    between atoms: _349  and  _350
REMARK  148  A    between atoms: _353  and  _355
REMARK  149  A    between atoms: _355  and  _356
REMARK  150  A    between atoms: _358  and  _360
REMARK  151  A    between atoms: _360  and  _361
REMARK  152  A    between atoms: _360  and  _363
REMARK  153  A    between atoms: _363  and  _364
REMARK  154  A    between atoms: _367  and  _369
REMARK  155  A    between atoms: _369  and  _370
REMARK  156  A    between atoms: _369  and  _372
REMARK  157  A    between atoms: _375  and  _376
REMARK  158  A    between atoms: _381  and  _383
REMARK  159  A    between atoms: _383  and  _384
REMARK  160  A    between atoms: _383  and  _386
REMARK  161  A    between atoms: _386  and  _387
REMARK  162  A    between atoms: _390  and  _392
REMARK  163  A    between atoms: _392  and  _393
REMARK  164  A    between atoms: _392  and  _395
REMARK  165  A    between atoms: _398  and  _400
REMARK  166  A    between atoms: _400  and  _401
REMARK  167  A    between atoms: _400  and  _403
REMARK  168  A    between atoms: _406  and  _408
REMARK  169  A    between atoms: _408  and  _409
REMARK  170  A    between atoms: _408  and  _411
REMARK  171  A    between atoms: _411  and  _412
REMARK  172  A    between atoms: _416  and  _417
REMARK  173  A    between atoms: _422  and  _424
REMARK  174  A    between atoms: _424  and  _425
REMARK  175  A    between atoms: _424  and  _427
REMARK  176  A    between atoms: _427  and  _428
REMARK  177  A    between atoms: _433  and  _434
REMARK  178  A    between atoms: _436  and  _438
REMARK  179  A    between atoms: _438  and  _439
REMARK  180  A    between atoms: _438  and  _441
REMARK  181  A    between atoms: _441  and  _442
REMARK  182  A    between atoms: _442  and  _443
REMARK  183  A    between atoms: _445  and  _447
REMARK  184  A    between atoms: _447  and  _448
REMARK  185  A    between atoms: _447  and  _450
REMARK  186  A    between atoms: _450  and  _451
REMARK  187  A    between atoms: _451  and  _452
REMARK  188  A    between atoms: _452  and  _453
REMARK  189  A    between atoms: _453  and  _454
REMARK  190  A    between atoms: _458  and  _460
REMARK  191  A    between atoms: _460  and  _461
REMARK  192  A    between atoms: _460  and  _463
REMARK  193  A    between atoms: _463  and  _464
REMARK  194  A    between atoms: _469  and  _471
REMARK  195  A    between atoms: _471  and  _472
REMARK  196  A    between atoms: _474  and  _476
REMARK  197  A    between atoms: _476  and  _477
REMARK  198  A    between atoms: _476  and  _479
REMARK  199  A    between atoms: _479  and  _480
REMARK  200  A    between atoms: _483  and  _485
REMARK  201  A    between atoms: _485  and  _486
REMARK  202  A    between atoms: _485  and  _488
REMARK  203  A    between atoms: _488  and  _489
REMARK  204  A    between atoms: _494  and  _496
REMARK  205  A    between atoms: _496  and  _497
REMARK  206  A    between atoms: _496  and  _499
REMARK  207  A    between atoms: _499  and  _500
REMARK  208  A    between atoms: _503  and  _505
REMARK  209  A    between atoms: _505  and  _506
REMARK  210  A    between atoms: _505  and  _508
REMARK  211  A    between atoms: _508  and  _509
REMARK  212  A    between atoms: _515  and  _517
REMARK  213  A    between atoms: _517  and  _518
REMARK  214  A    between atoms: _517  and  _520
REMARK  215  A    between atoms: _520  and  _521
REMARK  216  A    between atoms: _526  and  _528
REMARK  217  A    between atoms: _528  and  _529
REMARK  218  A    between atoms: _528  and  _531
REMARK  219  A    between atoms: _531  and  _532
REMARK  220  A    between atoms: _532  and  _533
REMARK  221  A    between atoms: _533  and  _534
REMARK  222  A    between atoms: _543  and  _545
REMARK  223  A    between atoms: _545  and  _546
REMARK  224  A    between atoms: _545  and  _548
REMARK  225  A    between atoms: _548  and  _549
REMARK  226  A    between atoms: _554  and  _556
REMARK  227  A    between atoms: _556  and  _557
REMARK  228  A    between atoms: _556  and  _559
REMARK  229  A    between atoms: _561  and  _563
REMARK  230  A    between atoms: _563  and  _564
REMARK  231  A    between atoms: _563  and  _566
REMARK  232  A    between atoms: _566  and  _567
REMARK  233  A    between atoms: _567  and  _568
REMARK  234  A    between atoms: _570  and  _572
REMARK  235  A    between atoms: _572  and  _573
REMARK  236  A    between atoms: _572  and  _575
REMARK  237  A    between atoms: _575  and  _576
REMARK  238  A    between atoms: _579  and  _581
REMARK  239  A    between atoms: _581  and  _582
REMARK  240  A    between atoms: _581  and  _584
REMARK  241  A    between atoms: _584  and  _585
REMARK  242  A    between atoms: _585  and  _586
REMARK  243  A    between atoms: _586  and  _587
REMARK  244  A    between atoms: _587  and  _588
REMARK  245  A    between atoms: _592  and  _594
REMARK  246  A    between atoms: _594  and  _595
REMARK  247  A    between atoms: _594  and  _597
REMARK  248  A    between atoms: _600  and  _602
REMARK  249  A    between atoms: _602  and  _603
REMARK  250  A    between atoms: _606  and  _608
REMARK  251  A    between atoms: _608  and  _609
REMARK  252  A    between atoms: _608  and  _611
REMARK  253  A    between atoms: _611  and  _612
REMARK  254  A    between atoms: _615  and  _617
REMARK  255  A    between atoms: _617  and  _618
REMARK  256  A    between atoms: _617  and  _620
REMARK  257  A    between atoms: _620  and  _621
REMARK  258  A    between atoms: _627  and  _629
REMARK  259  A    between atoms: _629  and  _630
REMARK                            x       y       z     vdW  Elec       q    Type
REMARK                         _______ _______ _______ _____ _____    ______ ____
ROOT
ATOM      1  O   HOH     1      17.764  13.322 -19.264  0.00  0.00    +0.000 OA
ENDROOT
TORSDOF 0
REMARK  Name = ../refined-set-2016/3u6h/3u6h_pocket.pdb
REMARK  259 active torsions:
REMARK  status: ('A' for Active; 'I' for Inactive)
REMARK    1  A    between atoms: _1  and  _3
REMARK    2  A    between atoms: _3  and  _4
REMARK    3  A    between atoms: _3  and  _6
REMARK    4  A    between atoms: _9  and  _11
REMARK    5  A    between atoms: _11  and  _12
REMARK    6  A    between atoms: _11  and  _14
REMARK    7  A    between atoms: _17  and  _19
REMARK    8  A    between atoms: _19  and  _20
REMARK    9  A    between atoms: _19  and  _22
REMARK   10  A    between atoms: _22  and  _23
REMARK   11  A    between atoms: _26  and  _28
REMARK   12  A    between atoms: _28  and  _29
REMARK   13  A    between atoms: _31  and  _33
REMARK   14  A    between atoms: _33  and  _34
REMARK   15  A    between atoms: _33  and  _36
REMARK   16  A    between atoms: _36  and  _37
REMARK   17  A    between atoms: _37  and  _38
REMARK   18  A    between atoms: _38  and  _39
REMARK   19  A    between atoms: _48  and  _50
REMARK   20  A    between atoms: _50  and  _51
REMARK   21  A    between atoms: _53  and  _55
REMARK   22  A    between atoms: _55  and  _56
REMARK   23  A    between atoms: _55  and  _58
REMARK   24  A    between atoms: _58  and  _59
REMARK   25  A    between atoms: _64  and  _66
REMARK   26  A    between atoms: _66  and  _67
REMARK   27  A    between atoms: _66  and  _69
REMARK   28  A    between atoms: _69  and  _70
REMARK   29  A    between atoms: _76  and  _78
REMARK   30  A    between atoms: _78  and  _79
REMARK   31  A    between atoms: _81  and  _83
REMARK   32  A    between atoms: _83  and  _84
REMARK   33  A    between atoms: _83  and  _86
REMARK   34  A    between atoms: _88  and  _90
REMARK   35  A    between atoms: _90  and  _91
REMARK   36  A    between atoms: _90  and  _93
REMARK   37  A    between atoms: _96  and  _98
REMARK   38  A    between atoms: _98  and  _99
REMARK   39  A    between atoms: _98  and  _101
REMARK   40  A    between atoms: _101  and  _102
REMARK   41  A    between atoms: _107  and  _108
REMARK   42  A    between atoms: _110  and  _112
REMARK   43  A    between atoms: _112  and  _113
REMARK   44  A    between atoms: _112  and  _115
REMARK   45  A    between atoms: _115  and  _116
REMARK   46  A    between atoms: _121  and  _123
REMARK   47  A    between atoms: _123  and  _124
REMARK   48  A    between atoms: _123  and  _126
REMARK   49  A    between atoms: _126  and  _127
REMARK   50  A    between atoms: _132  and  _134
REMARK   51  A    between atoms: _134  and  _135
REMARK   52  A    between atoms: _134  and  _137
REMARK   53  A    between atoms: _139  and  _141
REMARK   54  A    between atoms: _141  and  _142
REMARK   55  A    between atoms: _145  and  _147
REMARK   56  A    between atoms: _147  and  _148
REMARK   57  A    between atoms: _147  and  _150
REMARK   58  A    between atoms: _153  and  _155
REMARK   59  A    between atoms: _155  and  _156
REMARK   60  A    between atoms: _155  and  _158
REMARK   61  A    between atoms: _158  and  _159
REMARK   62  A    between atoms: _159  and  _160
REMARK   63  A    between atoms: _160  and  _161
REMARK   64  A    between atoms: _161  and  _162
REMARK   65  A    between atoms: _166  and  _168
REMARK   66  A    between atoms: _168  and  _169
REMARK   67  A    between atoms: _168  and  _171
REMARK   68  A    between atoms: _171  and  _172
REMARK   69  A    between atoms: _174  and  _176
REMARK   70  A    between atoms: _176  and  _177
REMARK   71  A    between atoms: _176  and  _179
REMARK   72  A    between atoms: _179  and  _180
REMARK   73  A    between atoms: _183  and  _185
REMARK   74  A    between atoms: _185  and  _186
REMARK   75  A    between atoms: _185  and  _188
REMARK   76  A    between atoms: _188  and  _189
REMARK   77  A    between atoms: _192  and  _194
REMARK   78  A    between atoms: _194  and  _195
REMARK   79  A    between atoms: _194  and  _197
REMARK   80  A    between atoms: _197  and  _198
REMARK   81  A    between atoms: _198  and  _199
REMARK   82  A    between atoms: _202  and  _204
REMARK   83  A    between atoms: _204  and  _205
REMARK   84  A    between atoms: _204  and  _207
REMARK   85  A    between atoms: _210  and  _212
REMARK   86  A    between atoms: _212  and  _213
REMARK   87  A    between atoms: _212  and  _215
REMARK   88  A    between atoms: _215  and  _216
REMARK   89  A    between atoms: _216  and  _217
REMARK   90  A    between atoms: _222  and  _224
REMARK   91  A    between atoms: _224  and  _225
REMARK   92  A    between atoms: _224  and  _227
REMARK   93  A    between atoms: _227  and  _228
REMARK   94  A    between atoms: _234  and  _236
REMARK   95  A    between atoms: _236  and  _237
REMARK   96  A    between atoms: _236  and  _239
REMARK   97  A    between atoms: _239  and  _240
REMARK   98  A    between atoms: _243  and  _245
REMARK   99  A    between atoms: _245  and  _246
REMARK  100  A    between atoms: _245  and  _248
REMARK  101  A    between atoms: _248  and  _249
REMARK  102  A    between atoms: _252  and  _254
REMARK  103  A    between atoms: _254  and  _255
REMARK  104  A    between atoms: _254  and  _257
REMARK  105  A    between atoms: _257  and  _258
REMARK  106  A    between atoms: _258  and  _259
REMARK  107  A    between atoms: _262  and  _264
REMARK  108  A    between atoms: _264  and  _265
REMARK  109  A    between atoms: _267  and  _269
REMARK  110  A    between atoms: _269  and  _270
REMARK  111  A    between atoms: _269  and  _272
REMARK  112  A    between atoms: _272  and  _273
REMARK  113  A    between atoms: _276  and  _278
REMARK  114  A    between atoms: _278  and  _279
REMARK  115  A    between atoms: _278  and  _281
REMARK  116  A    between atoms: _281  and  _282
REMARK  117  A    between atoms: _285  and  _287
REMARK  118  A    between atoms: _287  and  _288
REMARK  119  A    between atoms: _287  and  _290
REMARK  120  A    between atoms: _290  and  _291
REMARK  121  A    between atoms: _291  and  _292
REMARK  122  A    between atoms: _294  and  _296
REMARK  123  A    between atoms: _296  and  _297
REMARK  124  A    between atoms: _296  and  _299
REMARK  125  A    between atoms: _299  and  _300
REMARK  126  A    between atoms: _300  and  _301
REMARK  127  A    between atoms: _301  and  _302
REMARK  128  A    between atoms: _302  and  _303
REMARK  129  A    between atoms: _307  and  _309
REMARK  130  A    between atoms: _309  and  _310
REMARK  131  A    between atoms: _309  and  _312
REMARK  132  A    between atoms: _312  and  _313
REMARK  133  A    between atoms: _319  and  _321
REMARK  134  A    between atoms: _321  and  _322
REMARK  135  A    between atoms: _321  and  _324
REMARK  136  A    between atoms: _327  and  _329
REMARK  137  A    between atoms: _329  and  _330
REMARK  138  A    between atoms: _329  and  _332
REMARK  139  A    between atoms: _332  and  _333
REMARK  140  A    between atoms: _336  and  _338
REMARK  141  A    between atoms: _338  and  _339
REMARK  142  A    between atoms: _338  and  _341
REMARK  143  A    between atoms: _341  and  _342
REMARK  144  A    between atoms: _344  and  _346
REMARK  145  A    between atoms: _346  and  _347
REMARK  146  A    between atoms: _346  and  _349
REMARK  147  A    between atoms: _349  and  _350
REMARK  148  A    between atoms: _353  and  _355
REMARK  149  A    between atoms: _355  and  _356
REMARK  150  A    between atoms: _358  and  _360
REMARK  151  A    between atoms: _360  and  _361
REMARK  152  A    between atoms: _360  and  _363
REMARK  153  A    between atoms: _363  and  _364
REMARK  154  A    between atoms: _367  and  _369
REMARK  155  A    between atoms: _369  and  _370
REMARK  156  A    between atoms: _369  and  _372
REMARK  157  A    between atoms: _375  and  _376
REMARK  158  A    between atoms: _381  and  _383
REMARK  159  A    between atoms: _383  and  _384
REMARK  160  A    between atoms: _383  and  _386
REMARK  161  A    between atoms: _386  and  _387
REMARK  162  A    between atoms: _390  and  _392
REMARK  163  A    between atoms: _392  and  _393
REMARK  164  A    between atoms: _392  and  _395
REMARK  165  A    between atoms: _398  and  _400
REMARK  166  A    between atoms: _400  and  _401
REMARK  167  A    between atoms: _400  and  _403
REMARK  168  A    between atoms: _406  and  _408
REMARK  169  A    between atoms: _408  and  _409
REMARK  170  A    between atoms: _408  and  _411
REMARK  171  A    between atoms: _411  and  _412
REMARK  172  A    between atoms: _416  and  _417
REMARK  173  A    between atoms: _422  and  _424
REMARK  174  A    between atoms: _424  and  _425
REMARK  175  A    between atoms: _424  and  _427
REMARK  176  A    between atoms: _427  and  _428
REMARK  177  A    between atoms: _433  and  _434
REMARK  178  A    between atoms: _436  and  _438
REMARK  179  A    between atoms: _438  and  _439
REMARK  180  A    between atoms: _438  and  _441
REMARK  181  A    between atoms: _441  and  _442
REMARK  182  A    between atoms: _442  and  _443
REMARK  183  A    between atoms: _445  and  _447
REMARK  184  A    between atoms: _447  and  _448
REMARK  185  A    between atoms: _447  and  _450
REMARK  186  A    between atoms: _450  and  _451
REMARK  187  A    between atoms: _451  and  _452
REMARK  188  A    between atoms: _452  and  _453
REMARK  189  A    between atoms: _453  and  _454
REMARK  190  A    between atoms: _458  and  _460
REMARK  191  A    between atoms: _460  and  _461
REMARK  192  A    between atoms: _460  and  _463
REMARK  193  A    between atoms: _463  and  _464
REMARK  194  A    between atoms: _469  and  _471
REMARK  195  A    between atoms: _471  and  _472
REMARK  196  A    between atoms: _474  and  _476
REMARK  197  A    between atoms: _476  and  _477
REMARK  198  A    between atoms: _476  and  _479
REMARK  199  A    between atoms: _479  and  _480
REMARK  200  A    between atoms: _483  and  _485
REMARK  201  A    between atoms: _485  and  _486
REMARK  202  A    between atoms: _485  and  _488
REMARK  203  A    between atoms: _488  and  _489
REMARK  204  A    between atoms: _494  and  _496
REMARK  205  A    between atoms: _496  and  _497
REMARK  206  A    between atoms: _496  and  _499
REMARK  207  A    between atoms: _499  and  _500
REMARK  208  A    between atoms: _503  and  _505
REMARK  209  A    between atoms: _505  and  _506
REMARK  210  A    between atoms: _505  and  _508
REMARK  211  A    between atoms: _508  and  _509
REMARK  212  A    between atoms: _515  and  _517
REMARK  213  A    between atoms: _517  and  _518
REMARK  214  A    between atoms: _517  and  _520
REMARK  215  A    between atoms: _520  and  _521
REMARK  216  A    between atoms: _526  and  _528
REMARK  217  A    between atoms: _528  and  _529
REMARK  218  A    between atoms: _528  and  _531
REMARK  219  A    between atoms: _531  and  _532
REMARK  220  A    between atoms: _532  and  _533
REMARK  221  A    between atoms: _533  and  _534
REMARK  222  A    between atoms: _543  and  _545
REMARK  223  A    between atoms: _545  and  _546
REMARK  224  A    between atoms: _545  and  _548
REMARK  225  A    between atoms: _548  and  _549
REMARK  226  A    between atoms: _554  and  _556
REMARK  227  A    between atoms: _556  and  _557
REMARK  228  A    between atoms: _556  and  _559
REMARK  229  A    between atoms: _561  and  _563
REMARK  230  A    between atoms: _563  and  _564
REMARK  231  A    between atoms: _563  and  _566
REMARK  232  A    between atoms: _566  and  _567
REMARK  233  A    between atoms: _567  and  _568
REMARK  234  A    between atoms: _570  and  _572
REMARK  235  A    between atoms: _572  and  _573
REMARK  236  A    between atoms: _572  and  _575
REMARK  237  A    between atoms: _575  and  _576
REMARK  238  A    between atoms: _579  and  _581
REMARK  239  A    between atoms: _581  and  _582
REMARK  240  A    between atoms: _581  and  _584
REMARK  241  A    between atoms: _584  and  _585
REMARK  242  A    between atoms: _585  and  _586
REMARK  243  A    between atoms: _586  and  _587
REMARK  244  A    between atoms: _587  and  _588
REMARK  245  A    between atoms: _592  and  _594
REMARK  246  A    between atoms: _594  and  _595
REMARK  247  A    between atoms: _594  and  _597
REMARK  248  A    between atoms: _600  and  _602
REMARK  249  A    between atoms: _602  and  _603
REMARK  250  A    between atoms: _606  and  _608
REMARK  251  A    between atoms: _608  and  _609
REMARK  252  A    between atoms: _608  and  _611
REMARK  253  A    between atoms: _611  and  _612
REMARK  254  A    between atoms: _615  and  _617
REMARK  255  A    between atoms: _617  and  _618
REMARK  256  A    between atoms: _617  and  _620
REMARK  257  A    between atoms: _620  and  _621
REMARK  258  A    between atoms: _627  and  _629
REMARK  259  A    between atoms: _629  and  _630
REMARK                            x       y       z     vdW  Elec       q    Type
REMARK                         _______ _______ _______ _____ _____    ______ ____
ROOT
ATOM      1  O   HOH     1      19.034  10.999 -12.426  0.00  0.00    +0.000 OA
ENDROOT
TORSDOF 0
REMARK  Name = ../refined-set-2016/3u6h/3u6h_pocket.pdb
REMARK  259 active torsions:
REMARK  status: ('A' for Active; 'I' for Inactive)
REMARK    1  A    between atoms: _1  and  _3
REMARK    2  A    between atoms: _3  and  _4
REMARK    3  A    between atoms: _3  and  _6
REMARK    4  A    between atoms: _9  and  _11
REMARK    5  A    between atoms: _11  and  _12
REMARK    6  A    between atoms: _11  and  _14
REMARK    7  A    between atoms: _17  and  _19
REMARK    8  A    between atoms: _19  and  _20
REMARK    9  A    between atoms: _19  and  _22
REMARK   10  A    between atoms: _22  and  _23
REMARK   11  A    between atoms: _26  and  _28
REMARK   12  A    between atoms: _28  and  _29
REMARK   13  A    between atoms: _31  and  _33
REMARK   14  A    between atoms: _33  and  _34
REMARK   15  A    between atoms: _33  and  _36
REMARK   16  A    between atoms: _36  and  _37
REMARK   17  A    between atoms: _37  and  _38
REMARK   18  A    between atoms: _38  and  _39
REMARK   19  A    between atoms: _48  and  _50
REMARK   20  A    between atoms: _50  and  _51
REMARK   21  A    between atoms: _53  and  _55
REMARK   22  A    between atoms: _55  and  _56
REMARK   23  A    between atoms: _55  and  _58
REMARK   24  A    between atoms: _58  and  _59
REMARK   25  A    between atoms: _64  and  _66
REMARK   26  A    between atoms: _66  and  _67
REMARK   27  A    between atoms: _66  and  _69
REMARK   28  A    between atoms: _69  and  _70
REMARK   29  A    between atoms: _76  and  _78
REMARK   30  A    between atoms: _78  and  _79
REMARK   31  A    between atoms: _81  and  _83
REMARK   32  A    between atoms: _83  and  _84
REMARK   33  A    between atoms: _83  and  _86
REMARK   34  A    between atoms: _88  and  _90
REMARK   35  A    between atoms: _90  and  _91
REMARK   36  A    between atoms: _90  and  _93
REMARK   37  A    between atoms: _96  and  _98
REMARK   38  A    between atoms: _98  and  _99
REMARK   39  A    between atoms: _98  and  _101
REMARK   40  A    between atoms: _101  and  _102
REMARK   41  A    between atoms: _107  and  _108
REMARK   42  A    between atoms: _110  and  _112
REMARK   43  A    between atoms: _112  and  _113
REMARK   44  A    between atoms: _112  and  _115
REMARK   45  A    between atoms: _115  and  _116
REMARK   46  A    between atoms: _121  and  _123
REMARK   47  A    between atoms: _123  and  _124
REMARK   48  A    between atoms: _123  and  _126
REMARK   49  A    between atoms: _126  and  _127
REMARK   50  A    between atoms: _132  and  _134
REMARK   51  A    between atoms: _134  and  _135
REMARK   52  A    between atoms: _134  and  _137
REMARK   53  A    between atoms: _139  and  _141
REMARK   54  A    between atoms: _141  and  _142
REMARK   55  A    between atoms: _145  and  _147
REMARK   56  A    between atoms: _147  and  _148
REMARK   57  A    between atoms: _147  and  _150
REMARK   58  A    between atoms: _153  and  _155
REMARK   59  A    between atoms: _155  and  _156
REMARK   60  A    between atoms: _155  and  _158
REMARK   61  A    between atoms: _158  and  _159
REMARK   62  A    between atoms: _159  and  _160
REMARK   63  A    between atoms: _160  and  _161
REMARK   64  A    between atoms: _161  and  _162
REMARK   65  A    between atoms: _166  and  _168
REMARK   66  A    between atoms: _168  and  _169
REMARK   67  A    between atoms: _168  and  _171
REMARK   68  A    between atoms: _171  and  _172
REMARK   69  A    between atoms: _174  and  _176
REMARK   70  A    between atoms: _176  and  _177
REMARK   71  A    between atoms: _176  and  _179
REMARK   72  A    between atoms: _179  and  _180
REMARK   73  A    between atoms: _183  and  _185
REMARK   74  A    between atoms: _185  and  _186
REMARK   75  A    between atoms: _185  and  _188
REMARK   76  A    between atoms: _188  and  _189
REMARK   77  A    between atoms: _192  and  _194
REMARK   78  A    between atoms: _194  and  _195
REMARK   79  A    between atoms: _194  and  _197
REMARK   80  A    between atoms: _197  and  _198
REMARK   81  A    between atoms: _198  and  _199
REMARK   82  A    between atoms: _202  and  _204
REMARK   83  A    between atoms: _204  and  _205
REMARK   84  A    between atoms: _204  and  _207
REMARK   85  A    between atoms: _210  and  _212
REMARK   86  A    between atoms: _212  and  _213
REMARK   87  A    between atoms: _212  and  _215
REMARK   88  A    between atoms: _215  and  _216
REMARK   89  A    between atoms: _216  and  _217
REMARK   90  A    between atoms: _222  and  _224
REMARK   91  A    between atoms: _224  and  _225
REMARK   92  A    between atoms: _224  and  _227
REMARK   93  A    between atoms: _227  and  _228
REMARK   94  A    between atoms: _234  and  _236
REMARK   95  A    between atoms: _236  and  _237
REMARK   96  A    between atoms: _236  and  _239
REMARK   97  A    between atoms: _239  and  _240
REMARK   98  A    between atoms: _243  and  _245
REMARK   99  A    between atoms: _245  and  _246
REMARK  100  A    between atoms: _245  and  _248
REMARK  101  A    between atoms: _248  and  _249
REMARK  102  A    between atoms: _252  and  _254
REMARK  103  A    between atoms: _254  and  _255
REMARK  104  A    between atoms: _254  and  _257
REMARK  105  A    between atoms: _257  and  _258
REMARK  106  A    between atoms: _258  and  _259
REMARK  107  A    between atoms: _262  and  _264
REMARK  108  A    between atoms: _264  and  _265
REMARK  109  A    between atoms: _267  and  _269
REMARK  110  A    between atoms: _269  and  _270
REMARK  111  A    between atoms: _269  and  _272
REMARK  112  A    between atoms: _272  and  _273
REMARK  113  A    between atoms: _276  and  _278
REMARK  114  A    between atoms: _278  and  _279
REMARK  115  A    between atoms: _278  and  _281
REMARK  116  A    between atoms: _281  and  _282
REMARK  117  A    between atoms: _285  and  _287
REMARK  118  A    between atoms: _287  and  _288
REMARK  119  A    between atoms: _287  and  _290
REMARK  120  A    between atoms: _290  and  _291
REMARK  121  A    between atoms: _291  and  _292
REMARK  122  A    between atoms: _294  and  _296
REMARK  123  A    between atoms: _296  and  _297
REMARK  124  A    between atoms: _296  and  _299
REMARK  125  A    between atoms: _299  and  _300
REMARK  126  A    between atoms: _300  and  _301
REMARK  127  A    between atoms: _301  and  _302
REMARK  128  A    between atoms: _302  and  _303
REMARK  129  A    between atoms: _307  and  _309
REMARK  130  A    between atoms: _309  and  _310
REMARK  131  A    between atoms: _309  and  _312
REMARK  132  A    between atoms: _312  and  _313
REMARK  133  A    between atoms: _319  and  _321
REMARK  134  A    between atoms: _321  and  _322
REMARK  135  A    between atoms: _321  and  _324
REMARK  136  A    between atoms: _327  and  _329
REMARK  137  A    between atoms: _329  and  _330
REMARK  138  A    between atoms: _329  and  _332
REMARK  139  A    between atoms: _332  and  _333
REMARK  140  A    between atoms: _336  and  _338
REMARK  141  A    between atoms: _338  and  _339
REMARK  142  A    between atoms: _338  and  _341
REMARK  143  A    between atoms: _341  and  _342
REMARK  144  A    between atoms: _344  and  _346
REMARK  145  A    between atoms: _346  and  _347
REMARK  146  A    between atoms: _346  and  _349
REMARK  147  A    between atoms: _349  and  _350
REMARK  148  A    between atoms: _353  and  _355
REMARK  149  A    between atoms: _355  and  _356
REMARK  150  A    between atoms: _358  and  _360
REMARK  151  A    between atoms: _360  and  _361
REMARK  152  A    between atoms: _360  and  _363
REMARK  153  A    between atoms: _363  and  _364
REMARK  154  A    between atoms: _367  and  _369
REMARK  155  A    between atoms: _369  and  _370
REMARK  156  A    between atoms: _369  and  _372
REMARK  157  A    between atoms: _375  and  _376
REMARK  158  A    between atoms: _381  and  _383
REMARK  159  A    between atoms: _383  and  _384
REMARK  160  A    between atoms: _383  and  _386
REMARK  161  A    between atoms: _386  and  _387
REMARK  162  A    between atoms: _390  and  _392
REMARK  163  A    between atoms: _392  and  _393
REMARK  164  A    between atoms: _392  and  _395
REMARK  165  A    between atoms: _398  and  _400
REMARK  166  A    between atoms: _400  and  _401
REMARK  167  A    between atoms: _400  and  _403
REMARK  168  A    between atoms: _406  and  _408
REMARK  169  A    between atoms: _408  and  _409
REMARK  170  A    between atoms: _408  and  _411
REMARK  171  A    between atoms: _411  and  _412
REMARK  172  A    between atoms: _416  and  _417
REMARK  173  A    between atoms: _422  and  _424
REMARK  174  A    between atoms: _424  and  _425
REMARK  175  A    between atoms: _424  and  _427
REMARK  176  A    between atoms: _427  and  _428
REMARK  177  A    between atoms: _433  and  _434
REMARK  178  A    between atoms: _436  and  _438
REMARK  179  A    between atoms: _438  and  _439
REMARK  180  A    between atoms: _438  and  _441
REMARK  181  A    between atoms: _441  and  _442
REMARK  182  A    between atoms: _442  and  _443
REMARK  183  A    between atoms: _445  and  _447
REMARK  184  A    between atoms: _447  and  _448
REMARK  185  A    between atoms: _447  and  _450
REMARK  186  A    between atoms: _450  and  _451
REMARK  187  A    between atoms: _451  and  _452
REMARK  188  A    between atoms: _452  and  _453
REMARK  189  A    between atoms: _453  and  _454
REMARK  190  A    between atoms: _458  and  _460
REMARK  191  A    between atoms: _460  and  _461
REMARK  192  A    between atoms: _460  and  _463
REMARK  193  A    between atoms: _463  and  _464
REMARK  194  A    between atoms: _469  and  _471
REMARK  195  A    between atoms: _471  and  _472
REMARK  196  A    between atoms: _474  and  _476
REMARK  197  A    between atoms: _476  and  _477
REMARK  198  A    between atoms: _476  and  _479
REMARK  199  A    between atoms: _479  and  _480
REMARK  200  A    between atoms: _483  and  _485
REMARK  201  A    between atoms: _485  and  _486
REMARK  202  A    between atoms: _485  and  _488
REMARK  203  A    between atoms: _488  and  _489
REMARK  204  A    between atoms: _494  and  _496
REMARK  205  A    between atoms: _496  and  _497
REMARK  206  A    between atoms: _496  and  _499
REMARK  207  A    between atoms: _499  and  _500
REMARK  208  A    between atoms: _503  and  _505
REMARK  209  A    between atoms: _505  and  _506
REMARK  210  A    between atoms: _505  and  _508
REMARK  211  A    between atoms: _508  and  _509
REMARK  212  A    between atoms: _515  and  _517
REMARK  213  A    between atoms: _517  and  _518
REMARK  214  A    between atoms: _517  and  _520
REMARK  215  A    between atoms: _520  and  _521
REMARK  216  A    between atoms: _526  and  _528
REMARK  217  A    between atoms: _528  and  _529
REMARK  218  A    between atoms: _528  and  _531
REMARK  219  A    between atoms: _531  and  _532
REMARK  220  A    between atoms: _532  and  _533
REMARK  221  A    between atoms: _533  and  _534
REMARK  222  A    between atoms: _543  and  _545
REMARK  223  A    between atoms: _545  and  _546
REMARK  224  A    between atoms: _545  and  _548
REMARK  225  A    between atoms: _548  and  _549
REMARK  226  A    between atoms: _554  and  _556
REMARK  227  A    between atoms: _556  and  _557
REMARK  228  A    between atoms: _556  and  _559
REMARK  229  A    between atoms: _561  and  _563
REMARK  230  A    between atoms: _563  and  _564
REMARK  231  A    between atoms: _563  and  _566
REMARK  232  A    between atoms: _566  and  _567
REMARK  233  A    between atoms: _567  and  _568
REMARK  234  A    between atoms: _570  and  _572
REMARK  235  A    between atoms: _572  and  _573
REMARK  236  A    between atoms: _572  and  _575
REMARK  237  A    between atoms: _575  and  _576
REMARK  238  A    between atoms: _579  and  _581
REMARK  239  A    between atoms: _581  and  _582
REMARK  240  A    between atoms: _581  and  _584
REMARK  241  A    between atoms: _584  and  _585
REMARK  242  A    between atoms: _585  and  _586
REMARK  243  A    between atoms: _586  and  _587
REMARK  244  A    between atoms: _587  and  _588
REMARK  245  A    between atoms: _592  and  _594
REMARK  246  A    between atoms: _594  and  _595
REMARK  247  A    between atoms: _594  and  _597
REMARK  248  A    between atoms: _600  and  _602
REMARK  249  A    between atoms: _602  and  _603
REMARK  250  A    between atoms: _606  and  _608
REMARK  251  A    between atoms: _608  and  _609
REMARK  252  A    between atoms: _608  and  _611
REMARK  253  A    between atoms: _611  and  _612
REMARK  254  A    between atoms: _615  and  _617
REMARK  255  A    between atoms: _617  and  _618
REMARK  256  A    between atoms: _617  and  _620
REMARK  257  A    between atoms: _620  and  _621
REMARK  258  A    between atoms: _627  and  _629
REMARK  259  A    between atoms: _629  and  _630
REMARK                            x       y       z     vdW  Elec       q    Type
REMARK                         _______ _______ _______ _____ _____    ______ ____
ROOT
ATOM      1  O   HOH     1      16.453   7.922 -19.813  0.00  0.00    +0.000 OA
ENDROOT
TORSDOF 0
REMARK  Name = ../refined-set-2016/3u6h/3u6h_pocket.pdb
REMARK  259 active torsions:
REMARK  status: ('A' for Active; 'I' for Inactive)
REMARK    1  A    between atoms: _1  and  _3
REMARK    2  A    between atoms: _3  and  _4
REMARK    3  A    between atoms: _3  and  _6
REMARK    4  A    between atoms: _9  and  _11
REMARK    5  A    between atoms: _11  and  _12
REMARK    6  A    between atoms: _11  and  _14
REMARK    7  A    between atoms: _17  and  _19
REMARK    8  A    between atoms: _19  and  _20
REMARK    9  A    between atoms: _19  and  _22
REMARK   10  A    between atoms: _22  and  _23
REMARK   11  A    between atoms: _26  and  _28
REMARK   12  A    between atoms: _28  and  _29
REMARK   13  A    between atoms: _31  and  _33
REMARK   14  A    between atoms: _33  and  _34
REMARK   15  A    between atoms: _33  and  _36
REMARK   16  A    between atoms: _36  and  _37
REMARK   17  A    between atoms: _37  and  _38
REMARK   18  A    between atoms: _38  and  _39
REMARK   19  A    between atoms: _48  and  _50
REMARK   20  A    between atoms: _50  and  _51
REMARK   21  A    between atoms: _53  and  _55
REMARK   22  A    between atoms: _55  and  _56
REMARK   23  A    between atoms: _55  and  _58
REMARK   24  A    between atoms: _58  and  _59
REMARK   25  A    between atoms: _64  and  _66
REMARK   26  A    between atoms: _66  and  _67
REMARK   27  A    between atoms: _66  and  _69
REMARK   28  A    between atoms: _69  and  _70
REMARK   29  A    between atoms: _76  and  _78
REMARK   30  A    between atoms: _78  and  _79
REMARK   31  A    between atoms: _81  and  _83
REMARK   32  A    between atoms: _83  and  _84
REMARK   33  A    between atoms: _83  and  _86
REMARK   34  A    between atoms: _88  and  _90
REMARK   35  A    between atoms: _90  and  _91
REMARK   36  A    between atoms: _90  and  _93
REMARK   37  A    between atoms: _96  and  _98
REMARK   38  A    between atoms: _98  and  _99
REMARK   39  A    between atoms: _98  and  _101
REMARK   40  A    between atoms: _101  and  _102
REMARK   41  A    between atoms: _107  and  _108
REMARK   42  A    between atoms: _110  and  _112
REMARK   43  A    between atoms: _112  and  _113
REMARK   44  A    between atoms: _112  and  _115
REMARK   45  A    between atoms: _115  and  _116
REMARK   46  A    between atoms: _121  and  _123
REMARK   47  A    between atoms: _123  and  _124
REMARK   48  A    between atoms: _123  and  _126
REMARK   49  A    between atoms: _126  and  _127
REMARK   50  A    between atoms: _132  and  _134
REMARK   51  A    between atoms: _134  and  _135
REMARK   52  A    between atoms: _134  and  _137
REMARK   53  A    between atoms: _139  and  _141
REMARK   54  A    between atoms: _141  and  _142
REMARK   55  A    between atoms: _145  and  _147
REMARK   56  A    between atoms: _147  and  _148
REMARK   57  A    between atoms: _147  and  _150
REMARK   58  A    between atoms: _153  and  _155
REMARK   59  A    between atoms: _155  and  _156
REMARK   60  A    between atoms: _155  and  _158
REMARK   61  A    between atoms: _158  and  _159
REMARK   62  A    between atoms: _159  and  _160
REMARK   63  A    between atoms: _160  and  _161
REMARK   64  A    between atoms: _161  and  _162
REMARK   65  A    between atoms: _166  and  _168
REMARK   66  A    between atoms: _168  and  _169
REMARK   67  A    between atoms: _168  and  _171
REMARK   68  A    between atoms: _171  and  _172
REMARK   69  A    between atoms: _174  and  _176
REMARK   70  A    between atoms: _176  and  _177
REMARK   71  A    between atoms: _176  and  _179
REMARK   72  A    between atoms: _179  and  _180
REMARK   73  A    between atoms: _183  and  _185
REMARK   74  A    between atoms: _185  and  _186
REMARK   75  A    between atoms: _185  and  _188
REMARK   76  A    between atoms: _188  and  _189
REMARK   77  A    between atoms: _192  and  _194
REMARK   78  A    between atoms: _194  and  _195
REMARK   79  A    between atoms: _194  and  _197
REMARK   80  A    between atoms: _197  and  _198
REMARK   81  A    between atoms: _198  and  _199
REMARK   82  A    between atoms: _202  and  _204
REMARK   83  A    between atoms: _204  and  _205
REMARK   84  A    between atoms: _204  and  _207
REMARK   85  A    between atoms: _210  and  _212
REMARK   86  A    between atoms: _212  and  _213
REMARK   87  A    between atoms: _212  and  _215
REMARK   88  A    between atoms: _215  and  _216
REMARK   89  A    between atoms: _216  and  _217
REMARK   90  A    between atoms: _222  and  _224
REMARK   91  A    between atoms: _224  and  _225
REMARK   92  A    between atoms: _224  and  _227
REMARK   93  A    between atoms: _227  and  _228
REMARK   94  A    between atoms: _234  and  _236
REMARK   95  A    between atoms: _236  and  _237
REMARK   96  A    between atoms: _236  and  _239
REMARK   97  A    between atoms: _239  and  _240
REMARK   98  A    between atoms: _243  and  _245
REMARK   99  A    between atoms: _245  and  _246
REMARK  100  A    between atoms: _245  and  _248
REMARK  101  A    between atoms: _248  and  _249
REMARK  102  A    between atoms: _252  and  _254
REMARK  103  A    between atoms: _254  and  _255
REMARK  104  A    between atoms: _254  and  _257
REMARK  105  A    between atoms: _257  and  _258
REMARK  106  A    between atoms: _258  and  _259
REMARK  107  A    between atoms: _262  and  _264
REMARK  108  A    between atoms: _264  and  _265
REMARK  109  A    between atoms: _267  and  _269
REMARK  110  A    between atoms: _269  and  _270
REMARK  111  A    between atoms: _269  and  _272
REMARK  112  A    between atoms: _272  and  _273
REMARK  113  A    between atoms: _276  and  _278
REMARK  114  A    between atoms: _278  and  _279
REMARK  115  A    between atoms: _278  and  _281
REMARK  116  A    between atoms: _281  and  _282
REMARK  117  A    between atoms: _285  and  _287
REMARK  118  A    between atoms: _287  and  _288
REMARK  119  A    between atoms: _287  and  _290
REMARK  120  A    between atoms: _290  and  _291
REMARK  121  A    between atoms: _291  and  _292
REMARK  122  A    between atoms: _294  and  _296
REMARK  123  A    between atoms: _296  and  _297
REMARK  124  A    between atoms: _296  and  _299
REMARK  125  A    between atoms: _299  and  _300
REMARK  126  A    between atoms: _300  and  _301
REMARK  127  A    between atoms: _301  and  _302
REMARK  128  A    between atoms: _302  and  _303
REMARK  129  A    between atoms: _307  and  _309
REMARK  130  A    between atoms: _309  and  _310
REMARK  131  A    between atoms: _309  and  _312
REMARK  132  A    between atoms: _312  and  _313
REMARK  133  A    between atoms: _319  and  _321
REMARK  134  A    between atoms: _321  and  _322
REMARK  135  A    between atoms: _321  and  _324
REMARK  136  A    between atoms: _327  and  _329
REMARK  137  A    between atoms: _329  and  _330
REMARK  138  A    between atoms: _329  and  _332
REMARK  139  A    between atoms: _332  and  _333
REMARK  140  A    between atoms: _336  and  _338
REMARK  141  A    between atoms: _338  and  _339
REMARK  142  A    between atoms: _338  and  _341
REMARK  143  A    between atoms: _341  and  _342
REMARK  144  A    between atoms: _344  and  _346
REMARK  145  A    between atoms: _346  and  _347
REMARK  146  A    between atoms: _346  and  _349
REMARK  147  A    between atoms: _349  and  _350
REMARK  148  A    between atoms: _353  and  _355
REMARK  149  A    between atoms: _355  and  _356
REMARK  150  A    between atoms: _358  and  _360
REMARK  151  A    between atoms: _360  and  _361
REMARK  152  A    between atoms: _360  and  _363
REMARK  153  A    between atoms: _363  and  _364
REMARK  154  A    between atoms: _367  and  _369
REMARK  155  A    between atoms: _369  and  _370
REMARK  156  A    between atoms: _369  and  _372
REMARK  157  A    between atoms: _375  and  _376
REMARK  158  A    between atoms: _381  and  _383
REMARK  159  A    between atoms: _383  and  _384
REMARK  160  A    between atoms: _383  and  _386
REMARK  161  A    between atoms: _386  and  _387
REMARK  162  A    between atoms: _390  and  _392
REMARK  163  A    between atoms: _392  and  _393
REMARK  164  A    between atoms: _392  and  _395
REMARK  165  A    between atoms: _398  and  _400
REMARK  166  A    between atoms: _400  and  _401
REMARK  167  A    between atoms: _400  and  _403
REMARK  168  A    between atoms: _406  and  _408
REMARK  169  A    between atoms: _408  and  _409
REMARK  170  A    between atoms: _408  and  _411
REMARK  171  A    between atoms: _411  and  _412
REMARK  172  A    between atoms: _416  and  _417
REMARK  173  A    between atoms: _422  and  _424
REMARK  174  A    between atoms: _424  and  _425
REMARK  175  A    between atoms: _424  and  _427
REMARK  176  A    between atoms: _427  and  _428
REMARK  177  A    between atoms: _433  and  _434
REMARK  178  A    between atoms: _436  and  _438
REMARK  179  A    between atoms: _438  and  _439
REMARK  180  A    between atoms: _438  and  _441
REMARK  181  A    between atoms: _441  and  _442
REMARK  182  A    between atoms: _442  and  _443
REMARK  183  A    between atoms: _445  and  _447
REMARK  184  A    between atoms: _447  and  _448
REMARK  185  A    between atoms: _447  and  _450
REMARK  186  A    between atoms: _450  and  _451
REMARK  187  A    between atoms: _451  and  _452
REMARK  188  A    between atoms: _452  and  _453
REMARK  189  A    between atoms: _453  and  _454
REMARK  190  A    between atoms: _458  and  _460
REMARK  191  A    between atoms: _460  and  _461
REMARK  192  A    between atoms: _460  and  _463
REMARK  193  A    between atoms: _463  and  _464
REMARK  194  A    between atoms: _469  and  _471
REMARK  195  A    between atoms: _471  and  _472
REMARK  196  A    between atoms: _474  and  _476
REMARK  197  A    between atoms: _476  and  _477
REMARK  198  A    between atoms: _476  and  _479
REMARK  199  A    between atoms: _479  and  _480
REMARK  200  A    between atoms: _483  and  _485
REMARK  201  A    between atoms: _485  and  _486
REMARK  202  A    between atoms: _485  and  _488
REMARK  203  A    between atoms: _488  and  _489
REMARK  204  A    between atoms: _494  and  _496
REMARK  205  A    between atoms: _496  and  _497
REMARK  206  A    between atoms: _496  and  _499
REMARK  207  A    between atoms: _499  and  _500
REMARK  208  A    between atoms: _503  and  _505
REMARK  209  A    between atoms: _505  and  _506
REMARK  210  A    between atoms: _505  and  _508
REMARK  211  A    between atoms: _508  and  _509
REMARK  212  A    between atoms: _515  and  _517
REMARK  213  A    between atoms: _517  and  _518
REMARK  214  A    between atoms: _517  and  _520
REMARK  215  A    between atoms: _520  and  _521
REMARK  216  A    between atoms: _526  and  _528
REMARK  217  A    between atoms: _528  and  _529
REMARK  218  A    between atoms: _528  and  _531
REMARK  219  A    between atoms: _531  and  _532
REMARK  220  A    between atoms: _532  and  _533
REMARK  221  A    between atoms: _533  and  _534
REMARK  222  A    between atoms: _543  and  _545
REMARK  223  A    between atoms: _545  and  _546
REMARK  224  A    between atoms: _545  and  _548
REMARK  225  A    between atoms: _548  and  _549
REMARK  226  A    between atoms: _554  and  _556
REMARK  227  A    between atoms: _556  and  _557
REMARK  228  A    between atoms: _556  and  _559
REMARK  229  A    between atoms: _561  and  _563
REMARK  230  A    between atoms: _563  and  _564
REMARK  231  A    between atoms: _563  and  _566
REMARK  232  A    between atoms: _566  and  _567
REMARK  233  A    between atoms: _567  and  _568
REMARK  234  A    between atoms: _570  and  _572
REMARK  235  A    between atoms: _572  and  _573
REMARK  236  A    between atoms: _572  and  _575
REMARK  237  A    between atoms: _575  and  _576
REMARK  238  A    between atoms: _579  and  _581
REMARK  239  A    between atoms: _581  and  _582
REMARK  240  A    between atoms: _581  and  _584
REMARK  241  A    between atoms: _584  and  _585
REMARK  242  A    between atoms: _585  and  _586
REMARK  243  A    between atoms: _586  and  _587
REMARK  244  A    between atoms: _587  and  _588
REMARK  245  A    between atoms: _592  and  _594
REMARK  246  A    between atoms: _594  and  _595
REMARK  247  A    between atoms: _594  and  _597
REMARK  248  A    between atoms: _600  and  _602
REMARK  249  A    between atoms: _602  and  _603
REMARK  250  A    between atoms: _606  and  _608
REMARK  251  A    between atoms: _608  and  _609
REMARK  252  A    between atoms: _608  and  _611
REMARK  253  A    between atoms: _611  and  _612
REMARK  254  A    between atoms: _615  and  _617
REMARK  255  A    between atoms: _617  and  _618
REMARK  256  A    between atoms: _617  and  _620
REMARK  257  A    between atoms: _620  and  _621
REMARK  258  A    between atoms: _627  and  _629
REMARK  259  A    between atoms: _629  and  _630
REMARK                            x       y       z     vdW  Elec       q    Type
REMARK                         _______ _______ _______ _____ _____    ______ ____
ROOT
ATOM      1  O   HOH     1      30.187  -3.948 -16.876  0.00  0.00    +0.000 OA
ENDROOT
TORSDOF 0
REMARK  Name = ../refined-set-2016/3u6h/3u6h_pocket.pdb
REMARK  259 active torsions:
REMARK  status: ('A' for Active; 'I' for Inactive)
REMARK    1  A    between atoms: _1  and  _3
REMARK    2  A    between atoms: _3  and  _4
REMARK    3  A    between atoms: _3  and  _6
REMARK    4  A    between atoms: _9  and  _11
REMARK    5  A    between atoms: _11  and  _12
REMARK    6  A    between atoms: _11  and  _14
REMARK    7  A    between atoms: _17  and  _19
REMARK    8  A    between atoms: _19  and  _20
REMARK    9  A    between atoms: _19  and  _22
REMARK   10  A    between atoms: _22  and  _23
REMARK   11  A    between atoms: _26  and  _28
REMARK   12  A    between atoms: _28  and  _29
REMARK   13  A    between atoms: _31  and  _33
REMARK   14  A    between atoms: _33  and  _34
REMARK   15  A    between atoms: _33  and  _36
REMARK   16  A    between atoms: _36  and  _37
REMARK   17  A    between atoms: _37  and  _38
REMARK   18  A    between atoms: _38  and  _39
REMARK   19  A    between atoms: _48  and  _50
REMARK   20  A    between atoms: _50  and  _51
REMARK   21  A    between atoms: _53  and  _55
REMARK   22  A    between atoms: _55  and  _56
REMARK   23  A    between atoms: _55  and  _58
REMARK   24  A    between atoms: _58  and  _59
REMARK   25  A    between atoms: _64  and  _66
REMARK   26  A    between atoms: _66  and  _67
REMARK   27  A    between atoms: _66  and  _69
REMARK   28  A    between atoms: _69  and  _70
REMARK   29  A    between atoms: _76  and  _78
REMARK   30  A    between atoms: _78  and  _79
REMARK   31  A    between atoms: _81  and  _83
REMARK   32  A    between atoms: _83  and  _84
REMARK   33  A    between atoms: _83  and  _86
REMARK   34  A    between atoms: _88  and  _90
REMARK   35  A    between atoms: _90  and  _91
REMARK   36  A    between atoms: _90  and  _93
REMARK   37  A    between atoms: _96  and  _98
REMARK   38  A    between atoms: _98  and  _99
REMARK   39  A    between atoms: _98  and  _101
REMARK   40  A    between atoms: _101  and  _102
REMARK   41  A    between atoms: _107  and  _108
REMARK   42  A    between atoms: _110  and  _112
REMARK   43  A    between atoms: _112  and  _113
REMARK   44  A    between atoms: _112  and  _115
REMARK   45  A    between atoms: _115  and  _116
REMARK   46  A    between atoms: _121  and  _123
REMARK   47  A    between atoms: _123  and  _124
REMARK   48  A    between atoms: _123  and  _126
REMARK   49  A    between atoms: _126  and  _127
REMARK   50  A    between atoms: _132  and  _134
REMARK   51  A    between atoms: _134  and  _135
REMARK   52  A    between atoms: _134  and  _137
REMARK   53  A    between atoms: _139  and  _141
REMARK   54  A    between atoms: _141  and  _142
REMARK   55  A    between atoms: _145  and  _147
REMARK   56  A    between atoms: _147  and  _148
REMARK   57  A    between atoms: _147  and  _150
REMARK   58  A    between atoms: _153  and  _155
REMARK   59  A    between atoms: _155  and  _156
REMARK   60  A    between atoms: _155  and  _158
REMARK   61  A    between atoms: _158  and  _159
REMARK   62  A    between atoms: _159  and  _160
REMARK   63  A    between atoms: _160  and  _161
REMARK   64  A    between atoms: _161  and  _162
REMARK   65  A    between atoms: _166  and  _168
REMARK   66  A    between atoms: _168  and  _169
REMARK   67  A    between atoms: _168  and  _171
REMARK   68  A    between atoms: _171  and  _172
REMARK   69  A    between atoms: _174  and  _176
REMARK   70  A    between atoms: _176  and  _177
REMARK   71  A    between atoms: _176  and  _179
REMARK   72  A    between atoms: _179  and  _180
REMARK   73  A    between atoms: _183  and  _185
REMARK   74  A    between atoms: _185  and  _186
REMARK   75  A    between atoms: _185  and  _188
REMARK   76  A    between atoms: _188  and  _189
REMARK   77  A    between atoms: _192  and  _194
REMARK   78  A    between atoms: _194  and  _195
REMARK   79  A    between atoms: _194  and  _197
REMARK   80  A    between atoms: _197  and  _198
REMARK   81  A    between atoms: _198  and  _199
REMARK   82  A    between atoms: _202  and  _204
REMARK   83  A    between atoms: _204  and  _205
REMARK   84  A    between atoms: _204  and  _207
REMARK   85  A    between atoms: _210  and  _212
REMARK   86  A    between atoms: _212  and  _213
REMARK   87  A    between atoms: _212  and  _215
REMARK   88  A    between atoms: _215  and  _216
REMARK   89  A    between atoms: _216  and  _217
REMARK   90  A    between atoms: _222  and  _224
REMARK   91  A    between atoms: _224  and  _225
REMARK   92  A    between atoms: _224  and  _227
REMARK   93  A    between atoms: _227  and  _228
REMARK   94  A    between atoms: _234  and  _236
REMARK   95  A    between atoms: _236  and  _237
REMARK   96  A    between atoms: _236  and  _239
REMARK   97  A    between atoms: _239  and  _240
REMARK   98  A    between atoms: _243  and  _245
REMARK   99  A    between atoms: _245  and  _246
REMARK  100  A    between atoms: _245  and  _248
REMARK  101  A    between atoms: _248  and  _249
REMARK  102  A    between atoms: _252  and  _254
REMARK  103  A    between atoms: _254  and  _255
REMARK  104  A    between atoms: _254  and  _257
REMARK  105  A    between atoms: _257  and  _258
REMARK  106  A    between atoms: _258  and  _259
REMARK  107  A    between atoms: _262  and  _264
REMARK  108  A    between atoms: _264  and  _265
REMARK  109  A    between atoms: _267  and  _269
REMARK  110  A    between atoms: _269  and  _270
REMARK  111  A    between atoms: _269  and  _272
REMARK  112  A    between atoms: _272  and  _273
REMARK  113  A    between atoms: _276  and  _278
REMARK  114  A    between atoms: _278  and  _279
REMARK  115  A    between atoms: _278  and  _281
REMARK  116  A    between atoms: _281  and  _282
REMARK  117  A    between atoms: _285  and  _287
REMARK  118  A    between atoms: _287  and  _288
REMARK  119  A    between atoms: _287  and  _290
REMARK  120  A    between atoms: _290  and  _291
REMARK  121  A    between atoms: _291  and  _292
REMARK  122  A    between atoms: _294  and  _296
REMARK  123  A    between atoms: _296  and  _297
REMARK  124  A    between atoms: _296  and  _299
REMARK  125  A    between atoms: _299  and  _300
REMARK  126  A    between atoms: _300  and  _301
REMARK  127  A    between atoms: _301  and  _302
REMARK  128  A    between atoms: _302  and  _303
REMARK  129  A    between atoms: _307  and  _309
REMARK  130  A    between atoms: _309  and  _310
REMARK  131  A    between atoms: _309  and  _312
REMARK  132  A    between atoms: _312  and  _313
REMARK  133  A    between atoms: _319  and  _321
REMARK  134  A    between atoms: _321  and  _322
REMARK  135  A    between atoms: _321  and  _324
REMARK  136  A    between atoms: _327  and  _329
REMARK  137  A    between atoms: _329  and  _330
REMARK  138  A    between atoms: _329  and  _332
REMARK  139  A    between atoms: _332  and  _333
REMARK  140  A    between atoms: _336  and  _338
REMARK  141  A    between atoms: _338  and  _339
REMARK  142  A    between atoms: _338  and  _341
REMARK  143  A    between atoms: _341  and  _342
REMARK  144  A    between atoms: _344  and  _346
REMARK  145  A    between atoms: _346  and  _347
REMARK  146  A    between atoms: _346  and  _349
REMARK  147  A    between atoms: _349  and  _350
REMARK  148  A    between atoms: _353  and  _355
REMARK  149  A    between atoms: _355  and  _356
REMARK  150  A    between atoms: _358  and  _360
REMARK  151  A    between atoms: _360  and  _361
REMARK  152  A    between atoms: _360  and  _363
REMARK  153  A    between atoms: _363  and  _364
REMARK  154  A    between atoms: _367  and  _369
REMARK  155  A    between atoms: _369  and  _370
REMARK  156  A    between atoms: _369  and  _372
REMARK  157  A    between atoms: _375  and  _376
REMARK  158  A    between atoms: _381  and  _383
REMARK  159  A    between atoms: _383  and  _384
REMARK  160  A    between atoms: _383  and  _386
REMARK  161  A    between atoms: _386  and  _387
REMARK  162  A    between atoms: _390  and  _392
REMARK  163  A    between atoms: _392  and  _393
REMARK  164  A    between atoms: _392  and  _395
REMARK  165  A    between atoms: _398  and  _400
REMARK  166  A    between atoms: _400  and  _401
REMARK  167  A    between atoms: _400  and  _403
REMARK  168  A    between atoms: _406  and  _408
REMARK  169  A    between atoms: _408  and  _409
REMARK  170  A    between atoms: _408  and  _411
REMARK  171  A    between atoms: _411  and  _412
REMARK  172  A    between atoms: _416  and  _417
REMARK  173  A    between atoms: _422  and  _424
REMARK  174  A    between atoms: _424  and  _425
REMARK  175  A    between atoms: _424  and  _427
REMARK  176  A    between atoms: _427  and  _428
REMARK  177  A    between atoms: _433  and  _434
REMARK  178  A    between atoms: _436  and  _438
REMARK  179  A    between atoms: _438  and  _439
REMARK  180  A    between atoms: _438  and  _441
REMARK  181  A    between atoms: _441  and  _442
REMARK  182  A    between atoms: _442  and  _443
REMARK  183  A    between atoms: _445  and  _447
REMARK  184  A    between atoms: _447  and  _448
REMARK  185  A    between atoms: _447  and  _450
REMARK  186  A    between atoms: _450  and  _451
REMARK  187  A    between atoms: _451  and  _452
REMARK  188  A    between atoms: _452  and  _453
REMARK  189  A    between atoms: _453  and  _454
REMARK  190  A    between atoms: _458  and  _460
REMARK  191  A    between atoms: _460  and  _461
REMARK  192  A    between atoms: _460  and  _463
REMARK  193  A    between atoms: _463  and  _464
REMARK  194  A    between atoms: _469  and  _471
REMARK  195  A    between atoms: _471  and  _472
REMARK  196  A    between atoms: _474  and  _476
REMARK  197  A    between atoms: _476  and  _477
REMARK  198  A    between atoms: _476  and  _479
REMARK  199  A    between atoms: _479  and  _480
REMARK  200  A    between atoms: _483  and  _485
REMARK  201  A    between atoms: _485  and  _486
REMARK  202  A    between atoms: _485  and  _488
REMARK  203  A    between atoms: _488  and  _489
REMARK  204  A    between atoms: _494  and  _496
REMARK  205  A    between atoms: _496  and  _497
REMARK  206  A    between atoms: _496  and  _499
REMARK  207  A    between atoms: _499  and  _500
REMARK  208  A    between atoms: _503  and  _505
REMARK  209  A    between atoms: _505  and  _506
REMARK  210  A    between atoms: _505  and  _508
REMARK  211  A    between atoms: _508  and  _509
REMARK  212  A    between atoms: _515  and  _517
REMARK  213  A    between atoms: _517  and  _518
REMARK  214  A    between atoms: _517  and  _520
REMARK  215  A    between atoms: _520  and  _521
REMARK  216  A    between atoms: _526  and  _528
REMARK  217  A    between atoms: _528  and  _529
REMARK  218  A    between atoms: _528  and  _531
REMARK  219  A    between atoms: _531  and  _532
REMARK  220  A    between atoms: _532  and  _533
REMARK  221  A    between atoms: _533  and  _534
REMARK  222  A    between atoms: _543  and  _545
REMARK  223  A    between atoms: _545  and  _546
REMARK  224  A    between atoms: _545  and  _548
REMARK  225  A    between atoms: _548  and  _549
REMARK  226  A    between atoms: _554  and  _556
REMARK  227  A    between atoms: _556  and  _557
REMARK  228  A    between atoms: _556  and  _559
REMARK  229  A    between atoms: _561  and  _563
REMARK  230  A    between atoms: _563  and  _564
REMARK  231  A    between atoms: _563  and  _566
REMARK  232  A    between atoms: _566  and  _567
REMARK  233  A    between atoms: _567  and  _568
REMARK  234  A    between atoms: _570  and  _572
REMARK  235  A    between atoms: _572  and  _573
REMARK  236  A    between atoms: _572  and  _575
REMARK  237  A    between atoms: _575  and  _576
REMARK  238  A    between atoms: _579  and  _581
REMARK  239  A    between atoms: _581  and  _582
REMARK  240  A    between atoms: _581  and  _584
REMARK  241  A    between atoms: _584  and  _585
REMARK  242  A    between atoms: _585  and  _586
REMARK  243  A    between atoms: _586  and  _587
REMARK  244  A    between atoms: _587  and  _588
REMARK  245  A    between atoms: _592  and  _594
REMARK  246  A    between atoms: _594  and  _595
REMARK  247  A    between atoms: _594  and  _597
REMARK  248  A    between atoms: _600  and  _602
REMARK  249  A    between atoms: _602  and  _603
REMARK  250  A    between atoms: _606  and  _608
REMARK  251  A    between atoms: _608  and  _609
REMARK  252  A    between atoms: _608  and  _611
REMARK  253  A    between atoms: _611  and  _612
REMARK  254  A    between atoms: _615  and  _617
REMARK  255  A    between atoms: _617  and  _618
REMARK  256  A    between atoms: _617  and  _620
REMARK  257  A    between atoms: _620  and  _621
REMARK  258  A    between atoms: _627  and  _629
REMARK  259  A    between atoms: _629  and  _630
REMARK                            x       y       z     vdW  Elec       q    Type
REMARK                         _______ _______ _______ _____ _____    ______ ____
ROOT
ATOM      1  O   HOH     1      15.576   4.508 -25.983  0.00  0.00    +0.000 OA
ENDROOT
TORSDOF 0
REMARK  Name = ../refined-set-2016/3u6h/3u6h_pocket.pdb
REMARK  259 active torsions:
REMARK  status: ('A' for Active; 'I' for Inactive)
REMARK    1  A    between atoms: _1  and  _3
REMARK    2  A    between atoms: _3  and  _4
REMARK    3  A    between atoms: _3  and  _6
REMARK    4  A    between atoms: _9  and  _11
REMARK    5  A    between atoms: _11  and  _12
REMARK    6  A    between atoms: _11  and  _14
REMARK    7  A    between atoms: _17  and  _19
REMARK    8  A    between atoms: _19  and  _20
REMARK    9  A    between atoms: _19  and  _22
REMARK   10  A    between atoms: _22  and  _23
REMARK   11  A    between atoms: _26  and  _28
REMARK   12  A    between atoms: _28  and  _29
REMARK   13  A    between atoms: _31  and  _33
REMARK   14  A    between atoms: _33  and  _34
REMARK   15  A    between atoms: _33  and  _36
REMARK   16  A    between atoms: _36  and  _37
REMARK   17  A    between atoms: _37  and  _38
REMARK   18  A    between atoms: _38  and  _39
REMARK   19  A    between atoms: _48  and  _50
REMARK   20  A    between atoms: _50  and  _51
REMARK   21  A    between atoms: _53  and  _55
REMARK   22  A    between atoms: _55  and  _56
REMARK   23  A    between atoms: _55  and  _58
REMARK   24  A    between atoms: _58  and  _59
REMARK   25  A    between atoms: _64  and  _66
REMARK   26  A    between atoms: _66  and  _67
REMARK   27  A    between atoms: _66  and  _69
REMARK   28  A    between atoms: _69  and  _70
REMARK   29  A    between atoms: _76  and  _78
REMARK   30  A    between atoms: _78  and  _79
REMARK   31  A    between atoms: _81  and  _83
REMARK   32  A    between atoms: _83  and  _84
REMARK   33  A    between atoms: _83  and  _86
REMARK   34  A    between atoms: _88  and  _90
REMARK   35  A    between atoms: _90  and  _91
REMARK   36  A    between atoms: _90  and  _93
REMARK   37  A    between atoms: _96  and  _98
REMARK   38  A    between atoms: _98  and  _99
REMARK   39  A    between atoms: _98  and  _101
REMARK   40  A    between atoms: _101  and  _102
REMARK   41  A    between atoms: _107  and  _108
REMARK   42  A    between atoms: _110  and  _112
REMARK   43  A    between atoms: _112  and  _113
REMARK   44  A    between atoms: _112  and  _115
REMARK   45  A    between atoms: _115  and  _116
REMARK   46  A    between atoms: _121  and  _123
REMARK   47  A    between atoms: _123  and  _124
REMARK   48  A    between atoms: _123  and  _126
REMARK   49  A    between atoms: _126  and  _127
REMARK   50  A    between atoms: _132  and  _134
REMARK   51  A    between atoms: _134  and  _135
REMARK   52  A    between atoms: _134  and  _137
REMARK   53  A    between atoms: _139  and  _141
REMARK   54  A    between atoms: _141  and  _142
REMARK   55  A    between atoms: _145  and  _147
REMARK   56  A    between atoms: _147  and  _148
REMARK   57  A    between atoms: _147  and  _150
REMARK   58  A    between atoms: _153  and  _155
REMARK   59  A    between atoms: _155  and  _156
REMARK   60  A    between atoms: _155  and  _158
REMARK   61  A    between atoms: _158  and  _159
REMARK   62  A    between atoms: _159  and  _160
REMARK   63  A    between atoms: _160  and  _161
REMARK   64  A    between atoms: _161  and  _162
REMARK   65  A    between atoms: _166  and  _168
REMARK   66  A    between atoms: _168  and  _169
REMARK   67  A    between atoms: _168  and  _171
REMARK   68  A    between atoms: _171  and  _172
REMARK   69  A    between atoms: _174  and  _176
REMARK   70  A    between atoms: _176  and  _177
REMARK   71  A    between atoms: _176  and  _179
REMARK   72  A    between atoms: _179  and  _180
REMARK   73  A    between atoms: _183  and  _185
REMARK   74  A    between atoms: _185  and  _186
REMARK   75  A    between atoms: _185  and  _188
REMARK   76  A    between atoms: _188  and  _189
REMARK   77  A    between atoms: _192  and  _194
REMARK   78  A    between atoms: _194  and  _195
REMARK   79  A    between atoms: _194  and  _197
REMARK   80  A    between atoms: _197  and  _198
REMARK   81  A    between atoms: _198  and  _199
REMARK   82  A    between atoms: _202  and  _204
REMARK   83  A    between atoms: _204  and  _205
REMARK   84  A    between atoms: _204  and  _207
REMARK   85  A    between atoms: _210  and  _212
REMARK   86  A    between atoms: _212  and  _213
REMARK   87  A    between atoms: _212  and  _215
REMARK   88  A    between atoms: _215  and  _216
REMARK   89  A    between atoms: _216  and  _217
REMARK   90  A    between atoms: _222  and  _224
REMARK   91  A    between atoms: _224  and  _225
REMARK   92  A    between atoms: _224  and  _227
REMARK   93  A    between atoms: _227  and  _228
REMARK   94  A    between atoms: _234  and  _236
REMARK   95  A    between atoms: _236  and  _237
REMARK   96  A    between atoms: _236  and  _239
REMARK   97  A    between atoms: _239  and  _240
REMARK   98  A    between atoms: _243  and  _245
REMARK   99  A    between atoms: _245  and  _246
REMARK  100  A    between atoms: _245  and  _248
REMARK  101  A    between atoms: _248  and  _249
REMARK  102  A    between atoms: _252  and  _254
REMARK  103  A    between atoms: _254  and  _255
REMARK  104  A    between atoms: _254  and  _257
REMARK  105  A    between atoms: _257  and  _258
REMARK  106  A    between atoms: _258  and  _259
REMARK  107  A    between atoms: _262  and  _264
REMARK  108  A    between atoms: _264  and  _265
REMARK  109  A    between atoms: _267  and  _269
REMARK  110  A    between atoms: _269  and  _270
REMARK  111  A    between atoms: _269  and  _272
REMARK  112  A    between atoms: _272  and  _273
REMARK  113  A    between atoms: _276  and  _278
REMARK  114  A    between atoms: _278  and  _279
REMARK  115  A    between atoms: _278  and  _281
REMARK  116  A    between atoms: _281  and  _282
REMARK  117  A    between atoms: _285  and  _287
REMARK  118  A    between atoms: _287  and  _288
REMARK  119  A    between atoms: _287  and  _290
REMARK  120  A    between atoms: _290  and  _291
REMARK  121  A    between atoms: _291  and  _292
REMARK  122  A    between atoms: _294  and  _296
REMARK  123  A    between atoms: _296  and  _297
REMARK  124  A    between atoms: _296  and  _299
REMARK  125  A    between atoms: _299  and  _300
REMARK  126  A    between atoms: _300  and  _301
REMARK  127  A    between atoms: _301  and  _302
REMARK  128  A    between atoms: _302  and  _303
REMARK  129  A    between atoms: _307  and  _309
REMARK  130  A    between atoms: _309  and  _310
REMARK  131  A    between atoms: _309  and  _312
REMARK  132  A    between atoms: _312  and  _313
REMARK  133  A    between atoms: _319  and  _321
REMARK  134  A    between atoms: _321  and  _322
REMARK  135  A    between atoms: _321  and  _324
REMARK  136  A    between atoms: _327  and  _329
REMARK  137  A    between atoms: _329  and  _330
REMARK  138  A    between atoms: _329  and  _332
REMARK  139  A    between atoms: _332  and  _333
REMARK  140  A    between atoms: _336  and  _338
REMARK  141  A    between atoms: _338  and  _339
REMARK  142  A    between atoms: _338  and  _341
REMARK  143  A    between atoms: _341  and  _342
REMARK  144  A    between atoms: _344  and  _346
REMARK  145  A    between atoms: _346  and  _347
REMARK  146  A    between atoms: _346  and  _349
REMARK  147  A    between atoms: _349  and  _350
REMARK  148  A    between atoms: _353  and  _355
REMARK  149  A    between atoms: _355  and  _356
REMARK  150  A    between atoms: _358  and  _360
REMARK  151  A    between atoms: _360  and  _361
REMARK  152  A    between atoms: _360  and  _363
REMARK  153  A    between atoms: _363  and  _364
REMARK  154  A    between atoms: _367  and  _369
REMARK  155  A    between atoms: _369  and  _370
REMARK  156  A    between atoms: _369  and  _372
REMARK  157  A    between atoms: _375  and  _376
REMARK  158  A    between atoms: _381  and  _383
REMARK  159  A    between atoms: _383  and  _384
REMARK  160  A    between atoms: _383  and  _386
REMARK  161  A    between atoms: _386  and  _387
REMARK  162  A    between atoms: _390  and  _392
REMARK  163  A    between atoms: _392  and  _393
REMARK  164  A    between atoms: _392  and  _395
REMARK  165  A    between atoms: _398  and  _400
REMARK  166  A    between atoms: _400  and  _401
REMARK  167  A    between atoms: _400  and  _403
REMARK  168  A    between atoms: _406  and  _408
REMARK  169  A    between atoms: _408  and  _409
REMARK  170  A    between atoms: _408  and  _411
REMARK  171  A    between atoms: _411  and  _412
REMARK  172  A    between atoms: _416  and  _417
REMARK  173  A    between atoms: _422  and  _424
REMARK  174  A    between atoms: _424  and  _425
REMARK  175  A    between atoms: _424  and  _427
REMARK  176  A    between atoms: _427  and  _428
REMARK  177  A    between atoms: _433  and  _434
REMARK  178  A    between atoms: _436  and  _438
REMARK  179  A    between atoms: _438  and  _439
REMARK  180  A    between atoms: _438  and  _441
REMARK  181  A    between atoms: _441  and  _442
REMARK  182  A    between atoms: _442  and  _443
REMARK  183  A    between atoms: _445  and  _447
REMARK  184  A    between atoms: _447  and  _448
REMARK  185  A    between atoms: _447  and  _450
REMARK  186  A    between atoms: _450  and  _451
REMARK  187  A    between atoms: _451  and  _452
REMARK  188  A    between atoms: _452  and  _453
REMARK  189  A    between atoms: _453  and  _454
REMARK  190  A    between atoms: _458  and  _460
REMARK  191  A    between atoms: _460  and  _461
REMARK  192  A    between atoms: _460  and  _463
REMARK  193  A    between atoms: _463  and  _464
REMARK  194  A    between atoms: _469  and  _471
REMARK  195  A    between atoms: _471  and  _472
REMARK  196  A    between atoms: _474  and  _476
REMARK  197  A    between atoms: _476  and  _477
REMARK  198  A    between atoms: _476  and  _479
REMARK  199  A    between atoms: _479  and  _480
REMARK  200  A    between atoms: _483  and  _485
REMARK  201  A    between atoms: _485  and  _486
REMARK  202  A    between atoms: _485  and  _488
REMARK  203  A    between atoms: _488  and  _489
REMARK  204  A    between atoms: _494  and  _496
REMARK  205  A    between atoms: _496  and  _497
REMARK  206  A    between atoms: _496  and  _499
REMARK  207  A    between atoms: _499  and  _500
REMARK  208  A    between atoms: _503  and  _505
REMARK  209  A    between atoms: _505  and  _506
REMARK  210  A    between atoms: _505  and  _508
REMARK  211  A    between atoms: _508  and  _509
REMARK  212  A    between atoms: _515  and  _517
REMARK  213  A    between atoms: _517  and  _518
REMARK  214  A    between atoms: _517  and  _520
REMARK  215  A    between atoms: _520  and  _521
REMARK  216  A    between atoms: _526  and  _528
REMARK  217  A    between atoms: _528  and  _529
REMARK  218  A    between atoms: _528  and  _531
REMARK  219  A    between atoms: _531  and  _532
REMARK  220  A    between atoms: _532  and  _533
REMARK  221  A    between atoms: _533  and  _534
REMARK  222  A    between atoms: _543  and  _545
REMARK  223  A    between atoms: _545  and  _546
REMARK  224  A    between atoms: _545  and  _548
REMARK  225  A    between atoms: _548  and  _549
REMARK  226  A    between atoms: _554  and  _556
REMARK  227  A    between atoms: _556  and  _557
REMARK  228  A    between atoms: _556  and  _559
REMARK  229  A    between atoms: _561  and  _563
REMARK  230  A    between atoms: _563  and  _564
REMARK  231  A    between atoms: _563  and  _566
REMARK  232  A    between atoms: _566  and  _567
REMARK  233  A    between atoms: _567  and  _568
REMARK  234  A    between atoms: _570  and  _572
REMARK  235  A    between atoms: _572  and  _573
REMARK  236  A    between atoms: _572  and  _575
REMARK  237  A    between atoms: _575  and  _576
REMARK  238  A    between atoms: _579  and  _581
REMARK  239  A    between atoms: _581  and  _582
REMARK  240  A    between atoms: _581  and  _584
REMARK  241  A    between atoms: _584  and  _585
REMARK  242  A    between atoms: _585  and  _586
REMARK  243  A    between atoms: _586  and  _587
REMARK  244  A    between atoms: _587  and  _588
REMARK  245  A    between atoms: _592  and  _594
REMARK  246  A    between atoms: _594  and  _595
REMARK  247  A    between atoms: _594  and  _597
REMARK  248  A    between atoms: _600  and  _602
REMARK  249  A    between atoms: _602  and  _603
REMARK  250  A    between atoms: _606  and  _608
REMARK  251  A    between atoms: _608  and  _609
REMARK  252  A    between atoms: _608  and  _611
REMARK  253  A    between atoms: _611  and  _612
REMARK  254  A    between atoms: _615  and  _617
REMARK  255  A    between atoms: _617  and  _618
REMARK  256  A    between atoms: _617  and  _620
REMARK  257  A    between atoms: _620  and  _621
REMARK  258  A    between atoms: _627  and  _629
REMARK  259  A    between atoms: _629  and  _630
REMARK                            x       y       z     vdW  Elec       q    Type
REMARK                         _______ _______ _______ _____ _____    ______ ____
ROOT
ATOM      1  O   HOH     1      15.949   2.627 -29.095  0.00  0.00    +0.000 OA
ENDROOT
TORSDOF 0
REMARK  Name = ../refined-set-2016/3u6h/3u6h_pocket.pdb
REMARK  259 active torsions:
REMARK  status: ('A' for Active; 'I' for Inactive)
REMARK    1  A    between atoms: _1  and  _3
REMARK    2  A    between atoms: _3  and  _4
REMARK    3  A    between atoms: _3  and  _6
REMARK    4  A    between atoms: _9  and  _11
REMARK    5  A    between atoms: _11  and  _12
REMARK    6  A    between atoms: _11  and  _14
REMARK    7  A    between atoms: _17  and  _19
REMARK    8  A    between atoms: _19  and  _20
REMARK    9  A    between atoms: _19  and  _22
REMARK   10  A    between atoms: _22  and  _23
REMARK   11  A    between atoms: _26  and  _28
REMARK   12  A    between atoms: _28  and  _29
REMARK   13  A    between atoms: _31  and  _33
REMARK   14  A    between atoms: _33  and  _34
REMARK   15  A    between atoms: _33  and  _36
REMARK   16  A    between atoms: _36  and  _37
REMARK   17  A    between atoms: _37  and  _38
REMARK   18  A    between atoms: _38  and  _39
REMARK   19  A    between atoms: _48  and  _50
REMARK   20  A    between atoms: _50  and  _51
REMARK   21  A    between atoms: _53  and  _55
REMARK   22  A    between atoms: _55  and  _56
REMARK   23  A    between atoms: _55  and  _58
REMARK   24  A    between atoms: _58  and  _59
REMARK   25  A    between atoms: _64  and  _66
REMARK   26  A    between atoms: _66  and  _67
REMARK   27  A    between atoms: _66  and  _69
REMARK   28  A    between atoms: _69  and  _70
REMARK   29  A    between atoms: _76  and  _78
REMARK   30  A    between atoms: _78  and  _79
REMARK   31  A    between atoms: _81  and  _83
REMARK   32  A    between atoms: _83  and  _84
REMARK   33  A    between atoms: _83  and  _86
REMARK   34  A    between atoms: _88  and  _90
REMARK   35  A    between atoms: _90  and  _91
REMARK   36  A    between atoms: _90  and  _93
REMARK   37  A    between atoms: _96  and  _98
REMARK   38  A    between atoms: _98  and  _99
REMARK   39  A    between atoms: _98  and  _101
REMARK   40  A    between atoms: _101  and  _102
REMARK   41  A    between atoms: _107  and  _108
REMARK   42  A    between atoms: _110  and  _112
REMARK   43  A    between atoms: _112  and  _113
REMARK   44  A    between atoms: _112  and  _115
REMARK   45  A    between atoms: _115  and  _116
REMARK   46  A    between atoms: _121  and  _123
REMARK   47  A    between atoms: _123  and  _124
REMARK   48  A    between atoms: _123  and  _126
REMARK   49  A    between atoms: _126  and  _127
REMARK   50  A    between atoms: _132  and  _134
REMARK   51  A    between atoms: _134  and  _135
REMARK   52  A    between atoms: _134  and  _137
REMARK   53  A    between atoms: _139  and  _141
REMARK   54  A    between atoms: _141  and  _142
REMARK   55  A    between atoms: _145  and  _147
REMARK   56  A    between atoms: _147  and  _148
REMARK   57  A    between atoms: _147  and  _150
REMARK   58  A    between atoms: _153  and  _155
REMARK   59  A    between atoms: _155  and  _156
REMARK   60  A    between atoms: _155  and  _158
REMARK   61  A    between atoms: _158  and  _159
REMARK   62  A    between atoms: _159  and  _160
REMARK   63  A    between atoms: _160  and  _161
REMARK   64  A    between atoms: _161  and  _162
REMARK   65  A    between atoms: _166  and  _168
REMARK   66  A    between atoms: _168  and  _169
REMARK   67  A    between atoms: _168  and  _171
REMARK   68  A    between atoms: _171  and  _172
REMARK   69  A    between atoms: _174  and  _176
REMARK   70  A    between atoms: _176  and  _177
REMARK   71  A    between atoms: _176  and  _179
REMARK   72  A    between atoms: _179  and  _180
REMARK   73  A    between atoms: _183  and  _185
REMARK   74  A    between atoms: _185  and  _186
REMARK   75  A    between atoms: _185  and  _188
REMARK   76  A    between atoms: _188  and  _189
REMARK   77  A    between atoms: _192  and  _194
REMARK   78  A    between atoms: _194  and  _195
REMARK   79  A    between atoms: _194  and  _197
REMARK   80  A    between atoms: _197  and  _198
REMARK   81  A    between atoms: _198  and  _199
REMARK   82  A    between atoms: _202  and  _204
REMARK   83  A    between atoms: _204  and  _205
REMARK   84  A    between atoms: _204  and  _207
REMARK   85  A    between atoms: _210  and  _212
REMARK   86  A    between atoms: _212  and  _213
REMARK   87  A    between atoms: _212  and  _215
REMARK   88  A    between atoms: _215  and  _216
REMARK   89  A    between atoms: _216  and  _217
REMARK   90  A    between atoms: _222  and  _224
REMARK   91  A    between atoms: _224  and  _225
REMARK   92  A    between atoms: _224  and  _227
REMARK   93  A    between atoms: _227  and  _228
REMARK   94  A    between atoms: _234  and  _236
REMARK   95  A    between atoms: _236  and  _237
REMARK   96  A    between atoms: _236  and  _239
REMARK   97  A    between atoms: _239  and  _240
REMARK   98  A    between atoms: _243  and  _245
REMARK   99  A    between atoms: _245  and  _246
REMARK  100  A    between atoms: _245  and  _248
REMARK  101  A    between atoms: _248  and  _249
REMARK  102  A    between atoms: _252  and  _254
REMARK  103  A    between atoms: _254  and  _255
REMARK  104  A    between atoms: _254  and  _257
REMARK  105  A    between atoms: _257  and  _258
REMARK  106  A    between atoms: _258  and  _259
REMARK  107  A    between atoms: _262  and  _264
REMARK  108  A    between atoms: _264  and  _265
REMARK  109  A    between atoms: _267  and  _269
REMARK  110  A    between atoms: _269  and  _270
REMARK  111  A    between atoms: _269  and  _272
REMARK  112  A    between atoms: _272  and  _273
REMARK  113  A    between atoms: _276  and  _278
REMARK  114  A    between atoms: _278  and  _279
REMARK  115  A    between atoms: _278  and  _281
REMARK  116  A    between atoms: _281  and  _282
REMARK  117  A    between atoms: _285  and  _287
REMARK  118  A    between atoms: _287  and  _288
REMARK  119  A    between atoms: _287  and  _290
REMARK  120  A    between atoms: _290  and  _291
REMARK  121  A    between atoms: _291  and  _292
REMARK  122  A    between atoms: _294  and  _296
REMARK  123  A    between atoms: _296  and  _297
REMARK  124  A    between atoms: _296  and  _299
REMARK  125  A    between atoms: _299  and  _300
REMARK  126  A    between atoms: _300  and  _301
REMARK  127  A    between atoms: _301  and  _302
REMARK  128  A    between atoms: _302  and  _303
REMARK  129  A    between atoms: _307  and  _309
REMARK  130  A    between atoms: _309  and  _310
REMARK  131  A    between atoms: _309  and  _312
REMARK  132  A    between atoms: _312  and  _313
REMARK  133  A    between atoms: _319  and  _321
REMARK  134  A    between atoms: _321  and  _322
REMARK  135  A    between atoms: _321  and  _324
REMARK  136  A    between atoms: _327  and  _329
REMARK  137  A    between atoms: _329  and  _330
REMARK  138  A    between atoms: _329  and  _332
REMARK  139  A    between atoms: _332  and  _333
REMARK  140  A    between atoms: _336  and  _338
REMARK  141  A    between atoms: _338  and  _339
REMARK  142  A    between atoms: _338  and  _341
REMARK  143  A    between atoms: _341  and  _342
REMARK  144  A    between atoms: _344  and  _346
REMARK  145  A    between atoms: _346  and  _347
REMARK  146  A    between atoms: _346  and  _349
REMARK  147  A    between atoms: _349  and  _350
REMARK  148  A    between atoms: _353  and  _355
REMARK  149  A    between atoms: _355  and  _356
REMARK  150  A    between atoms: _358  and  _360
REMARK  151  A    between atoms: _360  and  _361
REMARK  152  A    between atoms: _360  and  _363
REMARK  153  A    between atoms: _363  and  _364
REMARK  154  A    between atoms: _367  and  _369
REMARK  155  A    between atoms: _369  and  _370
REMARK  156  A    between atoms: _369  and  _372
REMARK  157  A    between atoms: _375  and  _376
REMARK  158  A    between atoms: _381  and  _383
REMARK  159  A    between atoms: _383  and  _384
REMARK  160  A    between atoms: _383  and  _386
REMARK  161  A    between atoms: _386  and  _387
REMARK  162  A    between atoms: _390  and  _392
REMARK  163  A    between atoms: _392  and  _393
REMARK  164  A    between atoms: _392  and  _395
REMARK  165  A    between atoms: _398  and  _400
REMARK  166  A    between atoms: _400  and  _401
REMARK  167  A    between atoms: _400  and  _403
REMARK  168  A    between atoms: _406  and  _408
REMARK  169  A    between atoms: _408  and  _409
REMARK  170  A    between atoms: _408  and  _411
REMARK  171  A    between atoms: _411  and  _412
REMARK  172  A    between atoms: _416  and  _417
REMARK  173  A    between atoms: _422  and  _424
REMARK  174  A    between atoms: _424  and  _425
REMARK  175  A    between atoms: _424  and  _427
REMARK  176  A    between atoms: _427  and  _428
REMARK  177  A    between atoms: _433  and  _434
REMARK  178  A    between atoms: _436  and  _438
REMARK  179  A    between atoms: _438  and  _439
REMARK  180  A    between atoms: _438  and  _441
REMARK  181  A    between atoms: _441  and  _442
REMARK  182  A    between atoms: _442  and  _443
REMARK  183  A    between atoms: _445  and  _447
REMARK  184  A    between atoms: _447  and  _448
REMARK  185  A    between atoms: _447  and  _450
REMARK  186  A    between atoms: _450  and  _451
REMARK  187  A    between atoms: _451  and  _452
REMARK  188  A    between atoms: _452  and  _453
REMARK  189  A    between atoms: _453  and  _454
REMARK  190  A    between atoms: _458  and  _460
REMARK  191  A    between atoms: _460  and  _461
REMARK  192  A    between atoms: _460  and  _463
REMARK  193  A    between atoms: _463  and  _464
REMARK  194  A    between atoms: _469  and  _471
REMARK  195  A    between atoms: _471  and  _472
REMARK  196  A    between atoms: _474  and  _476
REMARK  197  A    between atoms: _476  and  _477
REMARK  198  A    between atoms: _476  and  _479
REMARK  199  A    between atoms: _479  and  _480
REMARK  200  A    between atoms: _483  and  _485
REMARK  201  A    between atoms: _485  and  _486
REMARK  202  A    between atoms: _485  and  _488
REMARK  203  A    between atoms: _488  and  _489
REMARK  204  A    between atoms: _494  and  _496
REMARK  205  A    between atoms: _496  and  _497
REMARK  206  A    between atoms: _496  and  _499
REMARK  207  A    between atoms: _499  and  _500
REMARK  208  A    between atoms: _503  and  _505
REMARK  209  A    between atoms: _505  and  _506
REMARK  210  A    between atoms: _505  and  _508
REMARK  211  A    between atoms: _508  and  _509
REMARK  212  A    between atoms: _515  and  _517
REMARK  213  A    between atoms: _517  and  _518
REMARK  214  A    between atoms: _517  and  _520
REMARK  215  A    between atoms: _520  and  _521
REMARK  216  A    between atoms: _526  and  _528
REMARK  217  A    between atoms: _528  and  _529
REMARK  218  A    between atoms: _528  and  _531
REMARK  219  A    between atoms: _531  and  _532
REMARK  220  A    between atoms: _532  and  _533
REMARK  221  A    between atoms: _533  and  _534
REMARK  222  A    between atoms: _543  and  _545
REMARK  223  A    between atoms: _545  and  _546
REMARK  224  A    between atoms: _545  and  _548
REMARK  225  A    between atoms: _548  and  _549
REMARK  226  A    between atoms: _554  and  _556
REMARK  227  A    between atoms: _556  and  _557
REMARK  228  A    between atoms: _556  and  _559
REMARK  229  A    between atoms: _561  and  _563
REMARK  230  A    between atoms: _563  and  _564
REMARK  231  A    between atoms: _563  and  _566
REMARK  232  A    between atoms: _566  and  _567
REMARK  233  A    between atoms: _567  and  _568
REMARK  234  A    between atoms: _570  and  _572
REMARK  235  A    between atoms: _572  and  _573
REMARK  236  A    between atoms: _572  and  _575
REMARK  237  A    between atoms: _575  and  _576
REMARK  238  A    between atoms: _579  and  _581
REMARK  239  A    between atoms: _581  and  _582
REMARK  240  A    between atoms: _581  and  _584
REMARK  241  A    between atoms: _584  and  _585
REMARK  242  A    between atoms: _585  and  _586
REMARK  243  A    between atoms: _586  and  _587
REMARK  244  A    between atoms: _587  and  _588
REMARK  245  A    between atoms: _592  and  _594
REMARK  246  A    between atoms: _594  and  _595
REMARK  247  A    between atoms: _594  and  _597
REMARK  248  A    between atoms: _600  and  _602
REMARK  249  A    between atoms: _602  and  _603
REMARK  250  A    between atoms: _606  and  _608
REMARK  251  A    between atoms: _608  and  _609
REMARK  252  A    between atoms: _608  and  _611
REMARK  253  A    between atoms: _611  and  _612
REMARK  254  A    between atoms: _615  and  _617
REMARK  255  A    between atoms: _617  and  _618
REMARK  256  A    between atoms: _617  and  _620
REMARK  257  A    between atoms: _620  and  _621
REMARK  258  A    between atoms: _627  and  _629
REMARK  259  A    between atoms: _629  and  _630
REMARK                            x       y       z     vdW  Elec       q    Type
REMARK                         _______ _______ _______ _____ _____    ______ ____
ROOT
ATOM      1  O   HOH     1      16.942   6.399 -29.463  0.00  0.00    +0.000 OA
ENDROOT
TORSDOF 0
REMARK  Name = ../refined-set-2016/3u6h/3u6h_pocket.pdb
REMARK  259 active torsions:
REMARK  status: ('A' for Active; 'I' for Inactive)
REMARK    1  A    between atoms: _1  and  _3
REMARK    2  A    between atoms: _3  and  _4
REMARK    3  A    between atoms: _3  and  _6
REMARK    4  A    between atoms: _9  and  _11
REMARK    5  A    between atoms: _11  and  _12
REMARK    6  A    between atoms: _11  and  _14
REMARK    7  A    between atoms: _17  and  _19
REMARK    8  A    between atoms: _19  and  _20
REMARK    9  A    between atoms: _19  and  _22
REMARK   10  A    between atoms: _22  and  _23
REMARK   11  A    between atoms: _26  and  _28
REMARK   12  A    between atoms: _28  and  _29
REMARK   13  A    between atoms: _31  and  _33
REMARK   14  A    between atoms: _33  and  _34
REMARK   15  A    between atoms: _33  and  _36
REMARK   16  A    between atoms: _36  and  _37
REMARK   17  A    between atoms: _37  and  _38
REMARK   18  A    between atoms: _38  and  _39
REMARK   19  A    between atoms: _48  and  _50
REMARK   20  A    between atoms: _50  and  _51
REMARK   21  A    between atoms: _53  and  _55
REMARK   22  A    between atoms: _55  and  _56
REMARK   23  A    between atoms: _55  and  _58
REMARK   24  A    between atoms: _58  and  _59
REMARK   25  A    between atoms: _64  and  _66
REMARK   26  A    between atoms: _66  and  _67
REMARK   27  A    between atoms: _66  and  _69
REMARK   28  A    between atoms: _69  and  _70
REMARK   29  A    between atoms: _76  and  _78
REMARK   30  A    between atoms: _78  and  _79
REMARK   31  A    between atoms: _81  and  _83
REMARK   32  A    between atoms: _83  and  _84
REMARK   33  A    between atoms: _83  and  _86
REMARK   34  A    between atoms: _88  and  _90
REMARK   35  A    between atoms: _90  and  _91
REMARK   36  A    between atoms: _90  and  _93
REMARK   37  A    between atoms: _96  and  _98
REMARK   38  A    between atoms: _98  and  _99
REMARK   39  A    between atoms: _98  and  _101
REMARK   40  A    between atoms: _101  and  _102
REMARK   41  A    between atoms: _107  and  _108
REMARK   42  A    between atoms: _110  and  _112
REMARK   43  A    between atoms: _112  and  _113
REMARK   44  A    between atoms: _112  and  _115
REMARK   45  A    between atoms: _115  and  _116
REMARK   46  A    between atoms: _121  and  _123
REMARK   47  A    between atoms: _123  and  _124
REMARK   48  A    between atoms: _123  and  _126
REMARK   49  A    between atoms: _126  and  _127
REMARK   50  A    between atoms: _132  and  _134
REMARK   51  A    between atoms: _134  and  _135
REMARK   52  A    between atoms: _134  and  _137
REMARK   53  A    between atoms: _139  and  _141
REMARK   54  A    between atoms: _141  and  _142
REMARK   55  A    between atoms: _145  and  _147
REMARK   56  A    between atoms: _147  and  _148
REMARK   57  A    between atoms: _147  and  _150
REMARK   58  A    between atoms: _153  and  _155
REMARK   59  A    between atoms: _155  and  _156
REMARK   60  A    between atoms: _155  and  _158
REMARK   61  A    between atoms: _158  and  _159
REMARK   62  A    between atoms: _159  and  _160
REMARK   63  A    between atoms: _160  and  _161
REMARK   64  A    between atoms: _161  and  _162
REMARK   65  A    between atoms: _166  and  _168
REMARK   66  A    between atoms: _168  and  _169
REMARK   67  A    between atoms: _168  and  _171
REMARK   68  A    between atoms: _171  and  _172
REMARK   69  A    between atoms: _174  and  _176
REMARK   70  A    between atoms: _176  and  _177
REMARK   71  A    between atoms: _176  and  _179
REMARK   72  A    between atoms: _179  and  _180
REMARK   73  A    between atoms: _183  and  _185
REMARK   74  A    between atoms: _185  and  _186
REMARK   75  A    between atoms: _185  and  _188
REMARK   76  A    between atoms: _188  and  _189
REMARK   77  A    between atoms: _192  and  _194
REMARK   78  A    between atoms: _194  and  _195
REMARK   79  A    between atoms: _194  and  _197
REMARK   80  A    between atoms: _197  and  _198
REMARK   81  A    between atoms: _198  and  _199
REMARK   82  A    between atoms: _202  and  _204
REMARK   83  A    between atoms: _204  and  _205
REMARK   84  A    between atoms: _204  and  _207
REMARK   85  A    between atoms: _210  and  _212
REMARK   86  A    between atoms: _212  and  _213
REMARK   87  A    between atoms: _212  and  _215
REMARK   88  A    between atoms: _215  and  _216
REMARK   89  A    between atoms: _216  and  _217
REMARK   90  A    between atoms: _222  and  _224
REMARK   91  A    between atoms: _224  and  _225
REMARK   92  A    between atoms: _224  and  _227
REMARK   93  A    between atoms: _227  and  _228
REMARK   94  A    between atoms: _234  and  _236
REMARK   95  A    between atoms: _236  and  _237
REMARK   96  A    between atoms: _236  and  _239
REMARK   97  A    between atoms: _239  and  _240
REMARK   98  A    between atoms: _243  and  _245
REMARK   99  A    between atoms: _245  and  _246
REMARK  100  A    between atoms: _245  and  _248
REMARK  101  A    between atoms: _248  and  _249
REMARK  102  A    between atoms: _252  and  _254
REMARK  103  A    between atoms: _254  and  _255
REMARK  104  A    between atoms: _254  and  _257
REMARK  105  A    between atoms: _257  and  _258
REMARK  106  A    between atoms: _258  and  _259
REMARK  107  A    between atoms: _262  and  _264
REMARK  108  A    between atoms: _264  and  _265
REMARK  109  A    between atoms: _267  and  _269
REMARK  110  A    between atoms: _269  and  _270
REMARK  111  A    between atoms: _269  and  _272
REMARK  112  A    between atoms: _272  and  _273
REMARK  113  A    between atoms: _276  and  _278
REMARK  114  A    between atoms: _278  and  _279
REMARK  115  A    between atoms: _278  and  _281
REMARK  116  A    between atoms: _281  and  _282
REMARK  117  A    between atoms: _285  and  _287
REMARK  118  A    between atoms: _287  and  _288
REMARK  119  A    between atoms: _287  and  _290
REMARK  120  A    between atoms: _290  and  _291
REMARK  121  A    between atoms: _291  and  _292
REMARK  122  A    between atoms: _294  and  _296
REMARK  123  A    between atoms: _296  and  _297
REMARK  124  A    between atoms: _296  and  _299
REMARK  125  A    between atoms: _299  and  _300
REMARK  126  A    between atoms: _300  and  _301
REMARK  127  A    between atoms: _301  and  _302
REMARK  128  A    between atoms: _302  and  _303
REMARK  129  A    between atoms: _307  and  _309
REMARK  130  A    between atoms: _309  and  _310
REMARK  131  A    between atoms: _309  and  _312
REMARK  132  A    between atoms: _312  and  _313
REMARK  133  A    between atoms: _319  and  _321
REMARK  134  A    between atoms: _321  and  _322
REMARK  135  A    between atoms: _321  and  _324
REMARK  136  A    between atoms: _327  and  _329
REMARK  137  A    between atoms: _329  and  _330
REMARK  138  A    between atoms: _329  and  _332
REMARK  139  A    between atoms: _332  and  _333
REMARK  140  A    between atoms: _336  and  _338
REMARK  141  A    between atoms: _338  and  _339
REMARK  142  A    between atoms: _338  and  _341
REMARK  143  A    between atoms: _341  and  _342
REMARK  144  A    between atoms: _344  and  _346
REMARK  145  A    between atoms: _346  and  _347
REMARK  146  A    between atoms: _346  and  _349
REMARK  147  A    between atoms: _349  and  _350
REMARK  148  A    between atoms: _353  and  _355
REMARK  149  A    between atoms: _355  and  _356
REMARK  150  A    between atoms: _358  and  _360
REMARK  151  A    between atoms: _360  and  _361
REMARK  152  A    between atoms: _360  and  _363
REMARK  153  A    between atoms: _363  and  _364
REMARK  154  A    between atoms: _367  and  _369
REMARK  155  A    between atoms: _369  and  _370
REMARK  156  A    between atoms: _369  and  _372
REMARK  157  A    between atoms: _375  and  _376
REMARK  158  A    between atoms: _381  and  _383
REMARK  159  A    between atoms: _383  and  _384
REMARK  160  A    between atoms: _383  and  _386
REMARK  161  A    between atoms: _386  and  _387
REMARK  162  A    between atoms: _390  and  _392
REMARK  163  A    between atoms: _392  and  _393
REMARK  164  A    between atoms: _392  and  _395
REMARK  165  A    between atoms: _398  and  _400
REMARK  166  A    between atoms: _400  and  _401
REMARK  167  A    between atoms: _400  and  _403
REMARK  168  A    between atoms: _406  and  _408
REMARK  169  A    between atoms: _408  and  _409
REMARK  170  A    between atoms: _408  and  _411
REMARK  171  A    between atoms: _411  and  _412
REMARK  172  A    between atoms: _416  and  _417
REMARK  173  A    between atoms: _422  and  _424
REMARK  174  A    between atoms: _424  and  _425
REMARK  175  A    between atoms: _424  and  _427
REMARK  176  A    between atoms: _427  and  _428
REMARK  177  A    between atoms: _433  and  _434
REMARK  178  A    between atoms: _436  and  _438
REMARK  179  A    between atoms: _438  and  _439
REMARK  180  A    between atoms: _438  and  _441
REMARK  181  A    between atoms: _441  and  _442
REMARK  182  A    between atoms: _442  and  _443
REMARK  183  A    between atoms: _445  and  _447
REMARK  184  A    between atoms: _447  and  _448
REMARK  185  A    between atoms: _447  and  _450
REMARK  186  A    between atoms: _450  and  _451
REMARK  187  A    between atoms: _451  and  _452
REMARK  188  A    between atoms: _452  and  _453
REMARK  189  A    between atoms: _453  and  _454
REMARK  190  A    between atoms: _458  and  _460
REMARK  191  A    between atoms: _460  and  _461
REMARK  192  A    between atoms: _460  and  _463
REMARK  193  A    between atoms: _463  and  _464
REMARK  194  A    between atoms: _469  and  _471
REMARK  195  A    between atoms: _471  and  _472
REMARK  196  A    between atoms: _474  and  _476
REMARK  197  A    between atoms: _476  and  _477
REMARK  198  A    between atoms: _476  and  _479
REMARK  199  A    between atoms: _479  and  _480
REMARK  200  A    between atoms: _483  and  _485
REMARK  201  A    between atoms: _485  and  _486
REMARK  202  A    between atoms: _485  and  _488
REMARK  203  A    between atoms: _488  and  _489
REMARK  204  A    between atoms: _494  and  _496
REMARK  205  A    between atoms: _496  and  _497
REMARK  206  A    between atoms: _496  and  _499
REMARK  207  A    between atoms: _499  and  _500
REMARK  208  A    between atoms: _503  and  _505
REMARK  209  A    between atoms: _505  and  _506
REMARK  210  A    between atoms: _505  and  _508
REMARK  211  A    between atoms: _508  and  _509
REMARK  212  A    between atoms: _515  and  _517
REMARK  213  A    between atoms: _517  and  _518
REMARK  214  A    between atoms: _517  and  _520
REMARK  215  A    between atoms: _520  and  _521
REMARK  216  A    between atoms: _526  and  _528
REMARK  217  A    between atoms: _528  and  _529
REMARK  218  A    between atoms: _528  and  _531
REMARK  219  A    between atoms: _531  and  _532
REMARK  220  A    between atoms: _532  and  _533
REMARK  221  A    between atoms: _533  and  _534
REMARK  222  A    between atoms: _543  and  _545
REMARK  223  A    between atoms: _545  and  _546
REMARK  224  A    between atoms: _545  and  _548
REMARK  225  A    between atoms: _548  and  _549
REMARK  226  A    between atoms: _554  and  _556
REMARK  227  A    between atoms: _556  and  _557
REMARK  228  A    between atoms: _556  and  _559
REMARK  229  A    between atoms: _561  and  _563
REMARK  230  A    between atoms: _563  and  _564
REMARK  231  A    between atoms: _563  and  _566
REMARK  232  A    between atoms: _566  and  _567
REMARK  233  A    between atoms: _567  and  _568
REMARK  234  A    between atoms: _570  and  _572
REMARK  235  A    between atoms: _572  and  _573
REMARK  236  A    between atoms: _572  and  _575
REMARK  237  A    between atoms: _575  and  _576
REMARK  238  A    between atoms: _579  and  _581
REMARK  239  A    between atoms: _581  and  _582
REMARK  240  A    between atoms: _581  and  _584
REMARK  241  A    between atoms: _584  and  _585
REMARK  242  A    between atoms: _585  and  _586
REMARK  243  A    between atoms: _586  and  _587
REMARK  244  A    between atoms: _587  and  _588
REMARK  245  A    between atoms: _592  and  _594
REMARK  246  A    between atoms: _594  and  _595
REMARK  247  A    between atoms: _594  and  _597
REMARK  248  A    between atoms: _600  and  _602
REMARK  249  A    between atoms: _602  and  _603
REMARK  250  A    between atoms: _606  and  _608
REMARK  251  A    between atoms: _608  and  _609
REMARK  252  A    between atoms: _608  and  _611
REMARK  253  A    between atoms: _611  and  _612
REMARK  254  A    between atoms: _615  and  _617
REMARK  255  A    between atoms: _617  and  _618
REMARK  256  A    between atoms: _617  and  _620
REMARK  257  A    between atoms: _620  and  _621
REMARK  258  A    between atoms: _627  and  _629
REMARK  259  A    between atoms: _629  and  _630
REMARK                            x       y       z     vdW  Elec       q    Type
REMARK                         _______ _______ _______ _____ _____    ______ ____
ROOT
ATOM      1  O   HOH     1      14.132   8.403 -25.468  0.00  0.00    +0.000 OA
ENDROOT
TORSDOF 0
REMARK  Name = ../refined-set-2016/3u6h/3u6h_pocket.pdb
REMARK  259 active torsions:
REMARK  status: ('A' for Active; 'I' for Inactive)
REMARK    1  A    between atoms: _1  and  _3
REMARK    2  A    between atoms: _3  and  _4
REMARK    3  A    between atoms: _3  and  _6
REMARK    4  A    between atoms: _9  and  _11
REMARK    5  A    between atoms: _11  and  _12
REMARK    6  A    between atoms: _11  and  _14
REMARK    7  A    between atoms: _17  and  _19
REMARK    8  A    between atoms: _19  and  _20
REMARK    9  A    between atoms: _19  and  _22
REMARK   10  A    between atoms: _22  and  _23
REMARK   11  A    between atoms: _26  and  _28
REMARK   12  A    between atoms: _28  and  _29
REMARK   13  A    between atoms: _31  and  _33
REMARK   14  A    between atoms: _33  and  _34
REMARK   15  A    between atoms: _33  and  _36
REMARK   16  A    between atoms: _36  and  _37
REMARK   17  A    between atoms: _37  and  _38
REMARK   18  A    between atoms: _38  and  _39
REMARK   19  A    between atoms: _48  and  _50
REMARK   20  A    between atoms: _50  and  _51
REMARK   21  A    between atoms: _53  and  _55
REMARK   22  A    between atoms: _55  and  _56
REMARK   23  A    between atoms: _55  and  _58
REMARK   24  A    between atoms: _58  and  _59
REMARK   25  A    between atoms: _64  and  _66
REMARK   26  A    between atoms: _66  and  _67
REMARK   27  A    between atoms: _66  and  _69
REMARK   28  A    between atoms: _69  and  _70
REMARK   29  A    between atoms: _76  and  _78
REMARK   30  A    between atoms: _78  and  _79
REMARK   31  A    between atoms: _81  and  _83
REMARK   32  A    between atoms: _83  and  _84
REMARK   33  A    between atoms: _83  and  _86
REMARK   34  A    between atoms: _88  and  _90
REMARK   35  A    between atoms: _90  and  _91
REMARK   36  A    between atoms: _90  and  _93
REMARK   37  A    between atoms: _96  and  _98
REMARK   38  A    between atoms: _98  and  _99
REMARK   39  A    between atoms: _98  and  _101
REMARK   40  A    between atoms: _101  and  _102
REMARK   41  A    between atoms: _107  and  _108
REMARK   42  A    between atoms: _110  and  _112
REMARK   43  A    between atoms: _112  and  _113
REMARK   44  A    between atoms: _112  and  _115
REMARK   45  A    between atoms: _115  and  _116
REMARK   46  A    between atoms: _121  and  _123
REMARK   47  A    between atoms: _123  and  _124
REMARK   48  A    between atoms: _123  and  _126
REMARK   49  A    between atoms: _126  and  _127
REMARK   50  A    between atoms: _132  and  _134
REMARK   51  A    between atoms: _134  and  _135
REMARK   52  A    between atoms: _134  and  _137
REMARK   53  A    between atoms: _139  and  _141
REMARK   54  A    between atoms: _141  and  _142
REMARK   55  A    between atoms: _145  and  _147
REMARK   56  A    between atoms: _147  and  _148
REMARK   57  A    between atoms: _147  and  _150
REMARK   58  A    between atoms: _153  and  _155
REMARK   59  A    between atoms: _155  and  _156
REMARK   60  A    between atoms: _155  and  _158
REMARK   61  A    between atoms: _158  and  _159
REMARK   62  A    between atoms: _159  and  _160
REMARK   63  A    between atoms: _160  and  _161
REMARK   64  A    between atoms: _161  and  _162
REMARK   65  A    between atoms: _166  and  _168
REMARK   66  A    between atoms: _168  and  _169
REMARK   67  A    between atoms: _168  and  _171
REMARK   68  A    between atoms: _171  and  _172
REMARK   69  A    between atoms: _174  and  _176
REMARK   70  A    between atoms: _176  and  _177
REMARK   71  A    between atoms: _176  and  _179
REMARK   72  A    between atoms: _179  and  _180
REMARK   73  A    between atoms: _183  and  _185
REMARK   74  A    between atoms: _185  and  _186
REMARK   75  A    between atoms: _185  and  _188
REMARK   76  A    between atoms: _188  and  _189
REMARK   77  A    between atoms: _192  and  _194
REMARK   78  A    between atoms: _194  and  _195
REMARK   79  A    between atoms: _194  and  _197
REMARK   80  A    between atoms: _197  and  _198
REMARK   81  A    between atoms: _198  and  _199
REMARK   82  A    between atoms: _202  and  _204
REMARK   83  A    between atoms: _204  and  _205
REMARK   84  A    between atoms: _204  and  _207
REMARK   85  A    between atoms: _210  and  _212
REMARK   86  A    between atoms: _212  and  _213
REMARK   87  A    between atoms: _212  and  _215
REMARK   88  A    between atoms: _215  and  _216
REMARK   89  A    between atoms: _216  and  _217
REMARK   90  A    between atoms: _222  and  _224
REMARK   91  A    between atoms: _224  and  _225
REMARK   92  A    between atoms: _224  and  _227
REMARK   93  A    between atoms: _227  and  _228
REMARK   94  A    between atoms: _234  and  _236
REMARK   95  A    between atoms: _236  and  _237
REMARK   96  A    between atoms: _236  and  _239
REMARK   97  A    between atoms: _239  and  _240
REMARK   98  A    between atoms: _243  and  _245
REMARK   99  A    between atoms: _245  and  _246
REMARK  100  A    between atoms: _245  and  _248
REMARK  101  A    between atoms: _248  and  _249
REMARK  102  A    between atoms: _252  and  _254
REMARK  103  A    between atoms: _254  and  _255
REMARK  104  A    between atoms: _254  and  _257
REMARK  105  A    between atoms: _257  and  _258
REMARK  106  A    between atoms: _258  and  _259
REMARK  107  A    between atoms: _262  and  _264
REMARK  108  A    between atoms: _264  and  _265
REMARK  109  A    between atoms: _267  and  _269
REMARK  110  A    between atoms: _269  and  _270
REMARK  111  A    between atoms: _269  and  _272
REMARK  112  A    between atoms: _272  and  _273
REMARK  113  A    between atoms: _276  and  _278
REMARK  114  A    between atoms: _278  and  _279
REMARK  115  A    between atoms: _278  and  _281
REMARK  116  A    between atoms: _281  and  _282
REMARK  117  A    between atoms: _285  and  _287
REMARK  118  A    between atoms: _287  and  _288
REMARK  119  A    between atoms: _287  and  _290
REMARK  120  A    between atoms: _290  and  _291
REMARK  121  A    between atoms: _291  and  _292
REMARK  122  A    between atoms: _294  and  _296
REMARK  123  A    between atoms: _296  and  _297
REMARK  124  A    between atoms: _296  and  _299
REMARK  125  A    between atoms: _299  and  _300
REMARK  126  A    between atoms: _300  and  _301
REMARK  127  A    between atoms: _301  and  _302
REMARK  128  A    between atoms: _302  and  _303
REMARK  129  A    between atoms: _307  and  _309
REMARK  130  A    between atoms: _309  and  _310
REMARK  131  A    between atoms: _309  and  _312
REMARK  132  A    between atoms: _312  and  _313
REMARK  133  A    between atoms: _319  and  _321
REMARK  134  A    between atoms: _321  and  _322
REMARK  135  A    between atoms: _321  and  _324
REMARK  136  A    between atoms: _327  and  _329
REMARK  137  A    between atoms: _329  and  _330
REMARK  138  A    between atoms: _329  and  _332
REMARK  139  A    between atoms: _332  and  _333
REMARK  140  A    between atoms: _336  and  _338
REMARK  141  A    between atoms: _338  and  _339
REMARK  142  A    between atoms: _338  and  _341
REMARK  143  A    between atoms: _341  and  _342
REMARK  144  A    between atoms: _344  and  _346
REMARK  145  A    between atoms: _346  and  _347
REMARK  146  A    between atoms: _346  and  _349
REMARK  147  A    between atoms: _349  and  _350
REMARK  148  A    between atoms: _353  and  _355
REMARK  149  A    between atoms: _355  and  _356
REMARK  150  A    between atoms: _358  and  _360
REMARK  151  A    between atoms: _360  and  _361
REMARK  152  A    between atoms: _360  and  _363
REMARK  153  A    between atoms: _363  and  _364
REMARK  154  A    between atoms: _367  and  _369
REMARK  155  A    between atoms: _369  and  _370
REMARK  156  A    between atoms: _369  and  _372
REMARK  157  A    between atoms: _375  and  _376
REMARK  158  A    between atoms: _381  and  _383
REMARK  159  A    between atoms: _383  and  _384
REMARK  160  A    between atoms: _383  and  _386
REMARK  161  A    between atoms: _386  and  _387
REMARK  162  A    between atoms: _390  and  _392
REMARK  163  A    between atoms: _392  and  _393
REMARK  164  A    between atoms: _392  and  _395
REMARK  165  A    between atoms: _398  and  _400
REMARK  166  A    between atoms: _400  and  _401
REMARK  167  A    between atoms: _400  and  _403
REMARK  168  A    between atoms: _406  and  _408
REMARK  169  A    between atoms: _408  and  _409
REMARK  170  A    between atoms: _408  and  _411
REMARK  171  A    between atoms: _411  and  _412
REMARK  172  A    between atoms: _416  and  _417
REMARK  173  A    between atoms: _422  and  _424
REMARK  174  A    between atoms: _424  and  _425
REMARK  175  A    between atoms: _424  and  _427
REMARK  176  A    between atoms: _427  and  _428
REMARK  177  A    between atoms: _433  and  _434
REMARK  178  A    between atoms: _436  and  _438
REMARK  179  A    between atoms: _438  and  _439
REMARK  180  A    between atoms: _438  and  _441
REMARK  181  A    between atoms: _441  and  _442
REMARK  182  A    between atoms: _442  and  _443
REMARK  183  A    between atoms: _445  and  _447
REMARK  184  A    between atoms: _447  and  _448
REMARK  185  A    between atoms: _447  and  _450
REMARK  186  A    between atoms: _450  and  _451
REMARK  187  A    between atoms: _451  and  _452
REMARK  188  A    between atoms: _452  and  _453
REMARK  189  A    between atoms: _453  and  _454
REMARK  190  A    between atoms: _458  and  _460
REMARK  191  A    between atoms: _460  and  _461
REMARK  192  A    between atoms: _460  and  _463
REMARK  193  A    between atoms: _463  and  _464
REMARK  194  A    between atoms: _469  and  _471
REMARK  195  A    between atoms: _471  and  _472
REMARK  196  A    between atoms: _474  and  _476
REMARK  197  A    between atoms: _476  and  _477
REMARK  198  A    between atoms: _476  and  _479
REMARK  199  A    between atoms: _479  and  _480
REMARK  200  A    between atoms: _483  and  _485
REMARK  201  A    between atoms: _485  and  _486
REMARK  202  A    between atoms: _485  and  _488
REMARK  203  A    between atoms: _488  and  _489
REMARK  204  A    between atoms: _494  and  _496
REMARK  205  A    between atoms: _496  and  _497
REMARK  206  A    between atoms: _496  and  _499
REMARK  207  A    between atoms: _499  and  _500
REMARK  208  A    between atoms: _503  and  _505
REMARK  209  A    between atoms: _505  and  _506
REMARK  210  A    between atoms: _505  and  _508
REMARK  211  A    between atoms: _508  and  _509
REMARK  212  A    between atoms: _515  and  _517
REMARK  213  A    between atoms: _517  and  _518
REMARK  214  A    between atoms: _517  and  _520
REMARK  215  A    between atoms: _520  and  _521
REMARK  216  A    between atoms: _526  and  _528
REMARK  217  A    between atoms: _528  and  _529
REMARK  218  A    between atoms: _528  and  _531
REMARK  219  A    between atoms: _531  and  _532
REMARK  220  A    between atoms: _532  and  _533
REMARK  221  A    between atoms: _533  and  _534
REMARK  222  A    between atoms: _543  and  _545
REMARK  223  A    between atoms: _545  and  _546
REMARK  224  A    between atoms: _545  and  _548
REMARK  225  A    between atoms: _548  and  _549
REMARK  226  A    between atoms: _554  and  _556
REMARK  227  A    between atoms: _556  and  _557
REMARK  228  A    between atoms: _556  and  _559
REMARK  229  A    between atoms: _561  and  _563
REMARK  230  A    between atoms: _563  and  _564
REMARK  231  A    between atoms: _563  and  _566
REMARK  232  A    between atoms: _566  and  _567
REMARK  233  A    between atoms: _567  and  _568
REMARK  234  A    between atoms: _570  and  _572
REMARK  235  A    between atoms: _572  and  _573
REMARK  236  A    between atoms: _572  and  _575
REMARK  237  A    between atoms: _575  and  _576
REMARK  238  A    between atoms: _579  and  _581
REMARK  239  A    between atoms: _581  and  _582
REMARK  240  A    between atoms: _581  and  _584
REMARK  241  A    between atoms: _584  and  _585
REMARK  242  A    between atoms: _585  and  _586
REMARK  243  A    between atoms: _586  and  _587
REMARK  244  A    between atoms: _587  and  _588
REMARK  245  A    between atoms: _592  and  _594
REMARK  246  A    between atoms: _594  and  _595
REMARK  247  A    between atoms: _594  and  _597
REMARK  248  A    between atoms: _600  and  _602
REMARK  249  A    between atoms: _602  and  _603
REMARK  250  A    between atoms: _606  and  _608
REMARK  251  A    between atoms: _608  and  _609
REMARK  252  A    between atoms: _608  and  _611
REMARK  253  A    between atoms: _611  and  _612
REMARK  254  A    between atoms: _615  and  _617
REMARK  255  A    between atoms: _617  and  _618
REMARK  256  A    between atoms: _617  and  _620
REMARK  257  A    between atoms: _620  and  _621
REMARK  258  A    between atoms: _627  and  _629
REMARK  259  A    between atoms: _629  and  _630
REMARK                            x       y       z     vdW  Elec       q    Type
REMARK                         _______ _______ _______ _____ _____    ______ ____
ROOT
ATOM      1  O   HOH     1      22.347   4.364  -8.381  0.00  0.00    +0.000 OA
ENDROOT
TORSDOF 0
REMARK  Name = ../refined-set-2016/3u6h/3u6h_pocket.pdb
REMARK  259 active torsions:
REMARK  status: ('A' for Active; 'I' for Inactive)
REMARK    1  A    between atoms: _1  and  _3
REMARK    2  A    between atoms: _3  and  _4
REMARK    3  A    between atoms: _3  and  _6
REMARK    4  A    between atoms: _9  and  _11
REMARK    5  A    between atoms: _11  and  _12
REMARK    6  A    between atoms: _11  and  _14
REMARK    7  A    between atoms: _17  and  _19
REMARK    8  A    between atoms: _19  and  _20
REMARK    9  A    between atoms: _19  and  _22
REMARK   10  A    between atoms: _22  and  _23
REMARK   11  A    between atoms: _26  and  _28
REMARK   12  A    between atoms: _28  and  _29
REMARK   13  A    between atoms: _31  and  _33
REMARK   14  A    between atoms: _33  and  _34
REMARK   15  A    between atoms: _33  and  _36
REMARK   16  A    between atoms: _36  and  _37
REMARK   17  A    between atoms: _37  and  _38
REMARK   18  A    between atoms: _38  and  _39
REMARK   19  A    between atoms: _48  and  _50
REMARK   20  A    between atoms: _50  and  _51
REMARK   21  A    between atoms: _53  and  _55
REMARK   22  A    between atoms: _55  and  _56
REMARK   23  A    between atoms: _55  and  _58
REMARK   24  A    between atoms: _58  and  _59
REMARK   25  A    between atoms: _64  and  _66
REMARK   26  A    between atoms: _66  and  _67
REMARK   27  A    between atoms: _66  and  _69
REMARK   28  A    between atoms: _69  and  _70
REMARK   29  A    between atoms: _76  and  _78
REMARK   30  A    between atoms: _78  and  _79
REMARK   31  A    between atoms: _81  and  _83
REMARK   32  A    between atoms: _83  and  _84
REMARK   33  A    between atoms: _83  and  _86
REMARK   34  A    between atoms: _88  and  _90
REMARK   35  A    between atoms: _90  and  _91
REMARK   36  A    between atoms: _90  and  _93
REMARK   37  A    between atoms: _96  and  _98
REMARK   38  A    between atoms: _98  and  _99
REMARK   39  A    between atoms: _98  and  _101
REMARK   40  A    between atoms: _101  and  _102
REMARK   41  A    between atoms: _107  and  _108
REMARK   42  A    between atoms: _110  and  _112
REMARK   43  A    between atoms: _112  and  _113
REMARK   44  A    between atoms: _112  and  _115
REMARK   45  A    between atoms: _115  and  _116
REMARK   46  A    between atoms: _121  and  _123
REMARK   47  A    between atoms: _123  and  _124
REMARK   48  A    between atoms: _123  and  _126
REMARK   49  A    between atoms: _126  and  _127
REMARK   50  A    between atoms: _132  and  _134
REMARK   51  A    between atoms: _134  and  _135
REMARK   52  A    between atoms: _134  and  _137
REMARK   53  A    between atoms: _139  and  _141
REMARK   54  A    between atoms: _141  and  _142
REMARK   55  A    between atoms: _145  and  _147
REMARK   56  A    between atoms: _147  and  _148
REMARK   57  A    between atoms: _147  and  _150
REMARK   58  A    between atoms: _153  and  _155
REMARK   59  A    between atoms: _155  and  _156
REMARK   60  A    between atoms: _155  and  _158
REMARK   61  A    between atoms: _158  and  _159
REMARK   62  A    between atoms: _159  and  _160
REMARK   63  A    between atoms: _160  and  _161
REMARK   64  A    between atoms: _161  and  _162
REMARK   65  A    between atoms: _166  and  _168
REMARK   66  A    between atoms: _168  and  _169
REMARK   67  A    between atoms: _168  and  _171
REMARK   68  A    between atoms: _171  and  _172
REMARK   69  A    between atoms: _174  and  _176
REMARK   70  A    between atoms: _176  and  _177
REMARK   71  A    between atoms: _176  and  _179
REMARK   72  A    between atoms: _179  and  _180
REMARK   73  A    between atoms: _183  and  _185
REMARK   74  A    between atoms: _185  and  _186
REMARK   75  A    between atoms: _185  and  _188
REMARK   76  A    between atoms: _188  and  _189
REMARK   77  A    between atoms: _192  and  _194
REMARK   78  A    between atoms: _194  and  _195
REMARK   79  A    between atoms: _194  and  _197
REMARK   80  A    between atoms: _197  and  _198
REMARK   81  A    between atoms: _198  and  _199
REMARK   82  A    between atoms: _202  and  _204
REMARK   83  A    between atoms: _204  and  _205
REMARK   84  A    between atoms: _204  and  _207
REMARK   85  A    between atoms: _210  and  _212
REMARK   86  A    between atoms: _212  and  _213
REMARK   87  A    between atoms: _212  and  _215
REMARK   88  A    between atoms: _215  and  _216
REMARK   89  A    between atoms: _216  and  _217
REMARK   90  A    between atoms: _222  and  _224
REMARK   91  A    between atoms: _224  and  _225
REMARK   92  A    between atoms: _224  and  _227
REMARK   93  A    between atoms: _227  and  _228
REMARK   94  A    between atoms: _234  and  _236
REMARK   95  A    between atoms: _236  and  _237
REMARK   96  A    between atoms: _236  and  _239
REMARK   97  A    between atoms: _239  and  _240
REMARK   98  A    between atoms: _243  and  _245
REMARK   99  A    between atoms: _245  and  _246
REMARK  100  A    between atoms: _245  and  _248
REMARK  101  A    between atoms: _248  and  _249
REMARK  102  A    between atoms: _252  and  _254
REMARK  103  A    between atoms: _254  and  _255
REMARK  104  A    between atoms: _254  and  _257
REMARK  105  A    between atoms: _257  and  _258
REMARK  106  A    between atoms: _258  and  _259
REMARK  107  A    between atoms: _262  and  _264
REMARK  108  A    between atoms: _264  and  _265
REMARK  109  A    between atoms: _267  and  _269
REMARK  110  A    between atoms: _269  and  _270
REMARK  111  A    between atoms: _269  and  _272
REMARK  112  A    between atoms: _272  and  _273
REMARK  113  A    between atoms: _276  and  _278
REMARK  114  A    between atoms: _278  and  _279
REMARK  115  A    between atoms: _278  and  _281
REMARK  116  A    between atoms: _281  and  _282
REMARK  117  A    between atoms: _285  and  _287
REMARK  118  A    between atoms: _287  and  _288
REMARK  119  A    between atoms: _287  and  _290
REMARK  120  A    between atoms: _290  and  _291
REMARK  121  A    between atoms: _291  and  _292
REMARK  122  A    between atoms: _294  and  _296
REMARK  123  A    between atoms: _296  and  _297
REMARK  124  A    between atoms: _296  and  _299
REMARK  125  A    between atoms: _299  and  _300
REMARK  126  A    between atoms: _300  and  _301
REMARK  127  A    between atoms: _301  and  _302
REMARK  128  A    between atoms: _302  and  _303
REMARK  129  A    between atoms: _307  and  _309
REMARK  130  A    between atoms: _309  and  _310
REMARK  131  A    between atoms: _309  and  _312
REMARK  132  A    between atoms: _312  and  _313
REMARK  133  A    between atoms: _319  and  _321
REMARK  134  A    between atoms: _321  and  _322
REMARK  135  A    between atoms: _321  and  _324
REMARK  136  A    between atoms: _327  and  _329
REMARK  137  A    between atoms: _329  and  _330
REMARK  138  A    between atoms: _329  and  _332
REMARK  139  A    between atoms: _332  and  _333
REMARK  140  A    between atoms: _336  and  _338
REMARK  141  A    between atoms: _338  and  _339
REMARK  142  A    between atoms: _338  and  _341
REMARK  143  A    between atoms: _341  and  _342
REMARK  144  A    between atoms: _344  and  _346
REMARK  145  A    between atoms: _346  and  _347
REMARK  146  A    between atoms: _346  and  _349
REMARK  147  A    between atoms: _349  and  _350
REMARK  148  A    between atoms: _353  and  _355
REMARK  149  A    between atoms: _355  and  _356
REMARK  150  A    between atoms: _358  and  _360
REMARK  151  A    between atoms: _360  and  _361
REMARK  152  A    between atoms: _360  and  _363
REMARK  153  A    between atoms: _363  and  _364
REMARK  154  A    between atoms: _367  and  _369
REMARK  155  A    between atoms: _369  and  _370
REMARK  156  A    between atoms: _369  and  _372
REMARK  157  A    between atoms: _375  and  _376
REMARK  158  A    between atoms: _381  and  _383
REMARK  159  A    between atoms: _383  and  _384
REMARK  160  A    between atoms: _383  and  _386
REMARK  161  A    between atoms: _386  and  _387
REMARK  162  A    between atoms: _390  and  _392
REMARK  163  A    between atoms: _392  and  _393
REMARK  164  A    between atoms: _392  and  _395
REMARK  165  A    between atoms: _398  and  _400
REMARK  166  A    between atoms: _400  and  _401
REMARK  167  A    between atoms: _400  and  _403
REMARK  168  A    between atoms: _406  and  _408
REMARK  169  A    between atoms: _408  and  _409
REMARK  170  A    between atoms: _408  and  _411
REMARK  171  A    between atoms: _411  and  _412
REMARK  172  A    between atoms: _416  and  _417
REMARK  173  A    between atoms: _422  and  _424
REMARK  174  A    between atoms: _424  and  _425
REMARK  175  A    between atoms: _424  and  _427
REMARK  176  A    between atoms: _427  and  _428
REMARK  177  A    between atoms: _433  and  _434
REMARK  178  A    between atoms: _436  and  _438
REMARK  179  A    between atoms: _438  and  _439
REMARK  180  A    between atoms: _438  and  _441
REMARK  181  A    between atoms: _441  and  _442
REMARK  182  A    between atoms: _442  and  _443
REMARK  183  A    between atoms: _445  and  _447
REMARK  184  A    between atoms: _447  and  _448
REMARK  185  A    between atoms: _447  and  _450
REMARK  186  A    between atoms: _450  and  _451
REMARK  187  A    between atoms: _451  and  _452
REMARK  188  A    between atoms: _452  and  _453
REMARK  189  A    between atoms: _453  and  _454
REMARK  190  A    between atoms: _458  and  _460
REMARK  191  A    between atoms: _460  and  _461
REMARK  192  A    between atoms: _460  and  _463
REMARK  193  A    between atoms: _463  and  _464
REMARK  194  A    between atoms: _469  and  _471
REMARK  195  A    between atoms: _471  and  _472
REMARK  196  A    between atoms: _474  and  _476
REMARK  197  A    between atoms: _476  and  _477
REMARK  198  A    between atoms: _476  and  _479
REMARK  199  A    between atoms: _479  and  _480
REMARK  200  A    between atoms: _483  and  _485
REMARK  201  A    between atoms: _485  and  _486
REMARK  202  A    between atoms: _485  and  _488
REMARK  203  A    between atoms: _488  and  _489
REMARK  204  A    between atoms: _494  and  _496
REMARK  205  A    between atoms: _496  and  _497
REMARK  206  A    between atoms: _496  and  _499
REMARK  207  A    between atoms: _499  and  _500
REMARK  208  A    between atoms: _503  and  _505
REMARK  209  A    between atoms: _505  and  _506
REMARK  210  A    between atoms: _505  and  _508
REMARK  211  A    between atoms: _508  and  _509
REMARK  212  A    between atoms: _515  and  _517
REMARK  213  A    between atoms: _517  and  _518
REMARK  214  A    between atoms: _517  and  _520
REMARK  215  A    between atoms: _520  and  _521
REMARK  216  A    between atoms: _526  and  _528
REMARK  217  A    between atoms: _528  and  _529
REMARK  218  A    between atoms: _528  and  _531
REMARK  219  A    between atoms: _531  and  _532
REMARK  220  A    between atoms: _532  and  _533
REMARK  221  A    between atoms: _533  and  _534
REMARK  222  A    between atoms: _543  and  _545
REMARK  223  A    between atoms: _545  and  _546
REMARK  224  A    between atoms: _545  and  _548
REMARK  225  A    between atoms: _548  and  _549
REMARK  226  A    between atoms: _554  and  _556
REMARK  227  A    between atoms: _556  and  _557
REMARK  228  A    between atoms: _556  and  _559
REMARK  229  A    between atoms: _561  and  _563
REMARK  230  A    between atoms: _563  and  _564
REMARK  231  A    between atoms: _563  and  _566
REMARK  232  A    between atoms: _566  and  _567
REMARK  233  A    between atoms: _567  and  _568
REMARK  234  A    between atoms: _570  and  _572
REMARK  235  A    between atoms: _572  and  _573
REMARK  236  A    between atoms: _572  and  _575
REMARK  237  A    between atoms: _575  and  _576
REMARK  238  A    between atoms: _579  and  _581
REMARK  239  A    between atoms: _581  and  _582
REMARK  240  A    between atoms: _581  and  _584
REMARK  241  A    between atoms: _584  and  _585
REMARK  242  A    between atoms: _585  and  _586
REMARK  243  A    between atoms: _586  and  _587
REMARK  244  A    between atoms: _587  and  _588
REMARK  245  A    between atoms: _592  and  _594
REMARK  246  A    between atoms: _594  and  _595
REMARK  247  A    between atoms: _594  and  _597
REMARK  248  A    between atoms: _600  and  _602
REMARK  249  A    between atoms: _602  and  _603
REMARK  250  A    between atoms: _606  and  _608
REMARK  251  A    between atoms: _608  and  _609
REMARK  252  A    between atoms: _608  and  _611
REMARK  253  A    between atoms: _611  and  _612
REMARK  254  A    between atoms: _615  and  _617
REMARK  255  A    between atoms: _617  and  _618
REMARK  256  A    between atoms: _617  and  _620
REMARK  257  A    between atoms: _620  and  _621
REMARK  258  A    between atoms: _627  and  _629
REMARK  259  A    between atoms: _629  and  _630
REMARK                            x       y       z     vdW  Elec       q    Type
REMARK                         _______ _______ _______ _____ _____    ______ ____
ROOT
ATOM      1  O   HOH     1      23.147   5.408  -3.076  0.00  0.00    +0.000 OA
ENDROOT
TORSDOF 0
REMARK  Name = ../refined-set-2016/3u6h/3u6h_pocket.pdb
REMARK  259 active torsions:
REMARK  status: ('A' for Active; 'I' for Inactive)
REMARK    1  A    between atoms: _1  and  _3
REMARK    2  A    between atoms: _3  and  _4
REMARK    3  A    between atoms: _3  and  _6
REMARK    4  A    between atoms: _9  and  _11
REMARK    5  A    between atoms: _11  and  _12
REMARK    6  A    between atoms: _11  and  _14
REMARK    7  A    between atoms: _17  and  _19
REMARK    8  A    between atoms: _19  and  _20
REMARK    9  A    between atoms: _19  and  _22
REMARK   10  A    between atoms: _22  and  _23
REMARK   11  A    between atoms: _26  and  _28
REMARK   12  A    between atoms: _28  and  _29
REMARK   13  A    between atoms: _31  and  _33
REMARK   14  A    between atoms: _33  and  _34
REMARK   15  A    between atoms: _33  and  _36
REMARK   16  A    between atoms: _36  and  _37
REMARK   17  A    between atoms: _37  and  _38
REMARK   18  A    between atoms: _38  and  _39
REMARK   19  A    between atoms: _48  and  _50
REMARK   20  A    between atoms: _50  and  _51
REMARK   21  A    between atoms: _53  and  _55
REMARK   22  A    between atoms: _55  and  _56
REMARK   23  A    between atoms: _55  and  _58
REMARK   24  A    between atoms: _58  and  _59
REMARK   25  A    between atoms: _64  and  _66
REMARK   26  A    between atoms: _66  and  _67
REMARK   27  A    between atoms: _66  and  _69
REMARK   28  A    between atoms: _69  and  _70
REMARK   29  A    between atoms: _76  and  _78
REMARK   30  A    between atoms: _78  and  _79
REMARK   31  A    between atoms: _81  and  _83
REMARK   32  A    between atoms: _83  and  _84
REMARK   33  A    between atoms: _83  and  _86
REMARK   34  A    between atoms: _88  and  _90
REMARK   35  A    between atoms: _90  and  _91
REMARK   36  A    between atoms: _90  and  _93
REMARK   37  A    between atoms: _96  and  _98
REMARK   38  A    between atoms: _98  and  _99
REMARK   39  A    between atoms: _98  and  _101
REMARK   40  A    between atoms: _101  and  _102
REMARK   41  A    between atoms: _107  and  _108
REMARK   42  A    between atoms: _110  and  _112
REMARK   43  A    between atoms: _112  and  _113
REMARK   44  A    between atoms: _112  and  _115
REMARK   45  A    between atoms: _115  and  _116
REMARK   46  A    between atoms: _121  and  _123
REMARK   47  A    between atoms: _123  and  _124
REMARK   48  A    between atoms: _123  and  _126
REMARK   49  A    between atoms: _126  and  _127
REMARK   50  A    between atoms: _132  and  _134
REMARK   51  A    between atoms: _134  and  _135
REMARK   52  A    between atoms: _134  and  _137
REMARK   53  A    between atoms: _139  and  _141
REMARK   54  A    between atoms: _141  and  _142
REMARK   55  A    between atoms: _145  and  _147
REMARK   56  A    between atoms: _147  and  _148
REMARK   57  A    between atoms: _147  and  _150
REMARK   58  A    between atoms: _153  and  _155
REMARK   59  A    between atoms: _155  and  _156
REMARK   60  A    between atoms: _155  and  _158
REMARK   61  A    between atoms: _158  and  _159
REMARK   62  A    between atoms: _159  and  _160
REMARK   63  A    between atoms: _160  and  _161
REMARK   64  A    between atoms: _161  and  _162
REMARK   65  A    between atoms: _166  and  _168
REMARK   66  A    between atoms: _168  and  _169
REMARK   67  A    between atoms: _168  and  _171
REMARK   68  A    between atoms: _171  and  _172
REMARK   69  A    between atoms: _174  and  _176
REMARK   70  A    between atoms: _176  and  _177
REMARK   71  A    between atoms: _176  and  _179
REMARK   72  A    between atoms: _179  and  _180
REMARK   73  A    between atoms: _183  and  _185
REMARK   74  A    between atoms: _185  and  _186
REMARK   75  A    between atoms: _185  and  _188
REMARK   76  A    between atoms: _188  and  _189
REMARK   77  A    between atoms: _192  and  _194
REMARK   78  A    between atoms: _194  and  _195
REMARK   79  A    between atoms: _194  and  _197
REMARK   80  A    between atoms: _197  and  _198
REMARK   81  A    between atoms: _198  and  _199
REMARK   82  A    between atoms: _202  and  _204
REMARK   83  A    between atoms: _204  and  _205
REMARK   84  A    between atoms: _204  and  _207
REMARK   85  A    between atoms: _210  and  _212
REMARK   86  A    between atoms: _212  and  _213
REMARK   87  A    between atoms: _212  and  _215
REMARK   88  A    between atoms: _215  and  _216
REMARK   89  A    between atoms: _216  and  _217
REMARK   90  A    between atoms: _222  and  _224
REMARK   91  A    between atoms: _224  and  _225
REMARK   92  A    between atoms: _224  and  _227
REMARK   93  A    between atoms: _227  and  _228
REMARK   94  A    between atoms: _234  and  _236
REMARK   95  A    between atoms: _236  and  _237
REMARK   96  A    between atoms: _236  and  _239
REMARK   97  A    between atoms: _239  and  _240
REMARK   98  A    between atoms: _243  and  _245
REMARK   99  A    between atoms: _245  and  _246
REMARK  100  A    between atoms: _245  and  _248
REMARK  101  A    between atoms: _248  and  _249
REMARK  102  A    between atoms: _252  and  _254
REMARK  103  A    between atoms: _254  and  _255
REMARK  104  A    between atoms: _254  and  _257
REMARK  105  A    between atoms: _257  and  _258
REMARK  106  A    between atoms: _258  and  _259
REMARK  107  A    between atoms: _262  and  _264
REMARK  108  A    between atoms: _264  and  _265
REMARK  109  A    between atoms: _267  and  _269
REMARK  110  A    between atoms: _269  and  _270
REMARK  111  A    between atoms: _269  and  _272
REMARK  112  A    between atoms: _272  and  _273
REMARK  113  A    between atoms: _276  and  _278
REMARK  114  A    between atoms: _278  and  _279
REMARK  115  A    between atoms: _278  and  _281
REMARK  116  A    between atoms: _281  and  _282
REMARK  117  A    between atoms: _285  and  _287
REMARK  118  A    between atoms: _287  and  _288
REMARK  119  A    between atoms: _287  and  _290
REMARK  120  A    between atoms: _290  and  _291
REMARK  121  A    between atoms: _291  and  _292
REMARK  122  A    between atoms: _294  and  _296
REMARK  123  A    between atoms: _296  and  _297
REMARK  124  A    between atoms: _296  and  _299
REMARK  125  A    between atoms: _299  and  _300
REMARK  126  A    between atoms: _300  and  _301
REMARK  127  A    between atoms: _301  and  _302
REMARK  128  A    between atoms: _302  and  _303
REMARK  129  A    between atoms: _307  and  _309
REMARK  130  A    between atoms: _309  and  _310
REMARK  131  A    between atoms: _309  and  _312
REMARK  132  A    between atoms: _312  and  _313
REMARK  133  A    between atoms: _319  and  _321
REMARK  134  A    between atoms: _321  and  _322
REMARK  135  A    between atoms: _321  and  _324
REMARK  136  A    between atoms: _327  and  _329
REMARK  137  A    between atoms: _329  and  _330
REMARK  138  A    between atoms: _329  and  _332
REMARK  139  A    between atoms: _332  and  _333
REMARK  140  A    between atoms: _336  and  _338
REMARK  141  A    between atoms: _338  and  _339
REMARK  142  A    between atoms: _338  and  _341
REMARK  143  A    between atoms: _341  and  _342
REMARK  144  A    between atoms: _344  and  _346
REMARK  145  A    between atoms: _346  and  _347
REMARK  146  A    between atoms: _346  and  _349
REMARK  147  A    between atoms: _349  and  _350
REMARK  148  A    between atoms: _353  and  _355
REMARK  149  A    between atoms: _355  and  _356
REMARK  150  A    between atoms: _358  and  _360
REMARK  151  A    between atoms: _360  and  _361
REMARK  152  A    between atoms: _360  and  _363
REMARK  153  A    between atoms: _363  and  _364
REMARK  154  A    between atoms: _367  and  _369
REMARK  155  A    between atoms: _369  and  _370
REMARK  156  A    between atoms: _369  and  _372
REMARK  157  A    between atoms: _375  and  _376
REMARK  158  A    between atoms: _381  and  _383
REMARK  159  A    between atoms: _383  and  _384
REMARK  160  A    between atoms: _383  and  _386
REMARK  161  A    between atoms: _386  and  _387
REMARK  162  A    between atoms: _390  and  _392
REMARK  163  A    between atoms: _392  and  _393
REMARK  164  A    between atoms: _392  and  _395
REMARK  165  A    between atoms: _398  and  _400
REMARK  166  A    between atoms: _400  and  _401
REMARK  167  A    between atoms: _400  and  _403
REMARK  168  A    between atoms: _406  and  _408
REMARK  169  A    between atoms: _408  and  _409
REMARK  170  A    between atoms: _408  and  _411
REMARK  171  A    between atoms: _411  and  _412
REMARK  172  A    between atoms: _416  and  _417
REMARK  173  A    between atoms: _422  and  _424
REMARK  174  A    between atoms: _424  and  _425
REMARK  175  A    between atoms: _424  and  _427
REMARK  176  A    between atoms: _427  and  _428
REMARK  177  A    between atoms: _433  and  _434
REMARK  178  A    between atoms: _436  and  _438
REMARK  179  A    between atoms: _438  and  _439
REMARK  180  A    between atoms: _438  and  _441
REMARK  181  A    between atoms: _441  and  _442
REMARK  182  A    between atoms: _442  and  _443
REMARK  183  A    between atoms: _445  and  _447
REMARK  184  A    between atoms: _447  and  _448
REMARK  185  A    between atoms: _447  and  _450
REMARK  186  A    between atoms: _450  and  _451
REMARK  187  A    between atoms: _451  and  _452
REMARK  188  A    between atoms: _452  and  _453
REMARK  189  A    between atoms: _453  and  _454
REMARK  190  A    between atoms: _458  and  _460
REMARK  191  A    between atoms: _460  and  _461
REMARK  192  A    between atoms: _460  and  _463
REMARK  193  A    between atoms: _463  and  _464
REMARK  194  A    between atoms: _469  and  _471
REMARK  195  A    between atoms: _471  and  _472
REMARK  196  A    between atoms: _474  and  _476
REMARK  197  A    between atoms: _476  and  _477
REMARK  198  A    between atoms: _476  and  _479
REMARK  199  A    between atoms: _479  and  _480
REMARK  200  A    between atoms: _483  and  _485
REMARK  201  A    between atoms: _485  and  _486
REMARK  202  A    between atoms: _485  and  _488
REMARK  203  A    between atoms: _488  and  _489
REMARK  204  A    between atoms: _494  and  _496
REMARK  205  A    between atoms: _496  and  _497
REMARK  206  A    between atoms: _496  and  _499
REMARK  207  A    between atoms: _499  and  _500
REMARK  208  A    between atoms: _503  and  _505
REMARK  209  A    between atoms: _505  and  _506
REMARK  210  A    between atoms: _505  and  _508
REMARK  211  A    between atoms: _508  and  _509
REMARK  212  A    between atoms: _515  and  _517
REMARK  213  A    between atoms: _517  and  _518
REMARK  214  A    between atoms: _517  and  _520
REMARK  215  A    between atoms: _520  and  _521
REMARK  216  A    between atoms: _526  and  _528
REMARK  217  A    between atoms: _528  and  _529
REMARK  218  A    between atoms: _528  and  _531
REMARK  219  A    between atoms: _531  and  _532
REMARK  220  A    between atoms: _532  and  _533
REMARK  221  A    between atoms: _533  and  _534
REMARK  222  A    between atoms: _543  and  _545
REMARK  223  A    between atoms: _545  and  _546
REMARK  224  A    between atoms: _545  and  _548
REMARK  225  A    between atoms: _548  and  _549
REMARK  226  A    between atoms: _554  and  _556
REMARK  227  A    between atoms: _556  and  _557
REMARK  228  A    between atoms: _556  and  _559
REMARK  229  A    between atoms: _561  and  _563
REMARK  230  A    between atoms: _563  and  _564
REMARK  231  A    between atoms: _563  and  _566
REMARK  232  A    between atoms: _566  and  _567
REMARK  233  A    between atoms: _567  and  _568
REMARK  234  A    between atoms: _570  and  _572
REMARK  235  A    between atoms: _572  and  _573
REMARK  236  A    between atoms: _572  and  _575
REMARK  237  A    between atoms: _575  and  _576
REMARK  238  A    between atoms: _579  and  _581
REMARK  239  A    between atoms: _581  and  _582
REMARK  240  A    between atoms: _581  and  _584
REMARK  241  A    between atoms: _584  and  _585
REMARK  242  A    between atoms: _585  and  _586
REMARK  243  A    between atoms: _586  and  _587
REMARK  244  A    between atoms: _587  and  _588
REMARK  245  A    between atoms: _592  and  _594
REMARK  246  A    between atoms: _594  and  _595
REMARK  247  A    between atoms: _594  and  _597
REMARK  248  A    between atoms: _600  and  _602
REMARK  249  A    between atoms: _602  and  _603
REMARK  250  A    between atoms: _606  and  _608
REMARK  251  A    between atoms: _608  and  _609
REMARK  252  A    between atoms: _608  and  _611
REMARK  253  A    between atoms: _611  and  _612
REMARK  254  A    between atoms: _615  and  _617
REMARK  255  A    between atoms: _617  and  _618
REMARK  256  A    between atoms: _617  and  _620
REMARK  257  A    between atoms: _620  and  _621
REMARK  258  A    between atoms: _627  and  _629
REMARK  259  A    between atoms: _629  and  _630
REMARK                            x       y       z     vdW  Elec       q    Type
REMARK                         _______ _______ _______ _____ _____    ______ ____
ROOT
ATOM      1  O   HOH     1      22.600   5.475  -5.863  0.00  0.00    +0.000 OA
ENDROOT
TORSDOF 0
REMARK  Name = ../refined-set-2016/3u6h/3u6h_pocket.pdb
REMARK  259 active torsions:
REMARK  status: ('A' for Active; 'I' for Inactive)
REMARK    1  A    between atoms: _1  and  _3
REMARK    2  A    between atoms: _3  and  _4
REMARK    3  A    between atoms: _3  and  _6
REMARK    4  A    between atoms: _9  and  _11
REMARK    5  A    between atoms: _11  and  _12
REMARK    6  A    between atoms: _11  and  _14
REMARK    7  A    between atoms: _17  and  _19
REMARK    8  A    between atoms: _19  and  _20
REMARK    9  A    between atoms: _19  and  _22
REMARK   10  A    between atoms: _22  and  _23
REMARK   11  A    between atoms: _26  and  _28
REMARK   12  A    between atoms: _28  and  _29
REMARK   13  A    between atoms: _31  and  _33
REMARK   14  A    between atoms: _33  and  _34
REMARK   15  A    between atoms: _33  and  _36
REMARK   16  A    between atoms: _36  and  _37
REMARK   17  A    between atoms: _37  and  _38
REMARK   18  A    between atoms: _38  and  _39
REMARK   19  A    between atoms: _48  and  _50
REMARK   20  A    between atoms: _50  and  _51
REMARK   21  A    between atoms: _53  and  _55
REMARK   22  A    between atoms: _55  and  _56
REMARK   23  A    between atoms: _55  and  _58
REMARK   24  A    between atoms: _58  and  _59
REMARK   25  A    between atoms: _64  and  _66
REMARK   26  A    between atoms: _66  and  _67
REMARK   27  A    between atoms: _66  and  _69
REMARK   28  A    between atoms: _69  and  _70
REMARK   29  A    between atoms: _76  and  _78
REMARK   30  A    between atoms: _78  and  _79
REMARK   31  A    between atoms: _81  and  _83
REMARK   32  A    between atoms: _83  and  _84
REMARK   33  A    between atoms: _83  and  _86
REMARK   34  A    between atoms: _88  and  _90
REMARK   35  A    between atoms: _90  and  _91
REMARK   36  A    between atoms: _90  and  _93
REMARK   37  A    between atoms: _96  and  _98
REMARK   38  A    between atoms: _98  and  _99
REMARK   39  A    between atoms: _98  and  _101
REMARK   40  A    between atoms: _101  and  _102
REMARK   41  A    between atoms: _107  and  _108
REMARK   42  A    between atoms: _110  and  _112
REMARK   43  A    between atoms: _112  and  _113
REMARK   44  A    between atoms: _112  and  _115
REMARK   45  A    between atoms: _115  and  _116
REMARK   46  A    between atoms: _121  and  _123
REMARK   47  A    between atoms: _123  and  _124
REMARK   48  A    between atoms: _123  and  _126
REMARK   49  A    between atoms: _126  and  _127
REMARK   50  A    between atoms: _132  and  _134
REMARK   51  A    between atoms: _134  and  _135
REMARK   52  A    between atoms: _134  and  _137
REMARK   53  A    between atoms: _139  and  _141
REMARK   54  A    between atoms: _141  and  _142
REMARK   55  A    between atoms: _145  and  _147
REMARK   56  A    between atoms: _147  and  _148
REMARK   57  A    between atoms: _147  and  _150
REMARK   58  A    between atoms: _153  and  _155
REMARK   59  A    between atoms: _155  and  _156
REMARK   60  A    between atoms: _155  and  _158
REMARK   61  A    between atoms: _158  and  _159
REMARK   62  A    between atoms: _159  and  _160
REMARK   63  A    between atoms: _160  and  _161
REMARK   64  A    between atoms: _161  and  _162
REMARK   65  A    between atoms: _166  and  _168
REMARK   66  A    between atoms: _168  and  _169
REMARK   67  A    between atoms: _168  and  _171
REMARK   68  A    between atoms: _171  and  _172
REMARK   69  A    between atoms: _174  and  _176
REMARK   70  A    between atoms: _176  and  _177
REMARK   71  A    between atoms: _176  and  _179
REMARK   72  A    between atoms: _179  and  _180
REMARK   73  A    between atoms: _183  and  _185
REMARK   74  A    between atoms: _185  and  _186
REMARK   75  A    between atoms: _185  and  _188
REMARK   76  A    between atoms: _188  and  _189
REMARK   77  A    between atoms: _192  and  _194
REMARK   78  A    between atoms: _194  and  _195
REMARK   79  A    between atoms: _194  and  _197
REMARK   80  A    between atoms: _197  and  _198
REMARK   81  A    between atoms: _198  and  _199
REMARK   82  A    between atoms: _202  and  _204
REMARK   83  A    between atoms: _204  and  _205
REMARK   84  A    between atoms: _204  and  _207
REMARK   85  A    between atoms: _210  and  _212
REMARK   86  A    between atoms: _212  and  _213
REMARK   87  A    between atoms: _212  and  _215
REMARK   88  A    between atoms: _215  and  _216
REMARK   89  A    between atoms: _216  and  _217
REMARK   90  A    between atoms: _222  and  _224
REMARK   91  A    between atoms: _224  and  _225
REMARK   92  A    between atoms: _224  and  _227
REMARK   93  A    between atoms: _227  and  _228
REMARK   94  A    between atoms: _234  and  _236
REMARK   95  A    between atoms: _236  and  _237
REMARK   96  A    between atoms: _236  and  _239
REMARK   97  A    between atoms: _239  and  _240
REMARK   98  A    between atoms: _243  and  _245
REMARK   99  A    between atoms: _245  and  _246
REMARK  100  A    between atoms: _245  and  _248
REMARK  101  A    between atoms: _248  and  _249
REMARK  102  A    between atoms: _252  and  _254
REMARK  103  A    between atoms: _254  and  _255
REMARK  104  A    between atoms: _254  and  _257
REMARK  105  A    between atoms: _257  and  _258
REMARK  106  A    between atoms: _258  and  _259
REMARK  107  A    between atoms: _262  and  _264
REMARK  108  A    between atoms: _264  and  _265
REMARK  109  A    between atoms: _267  and  _269
REMARK  110  A    between atoms: _269  and  _270
REMARK  111  A    between atoms: _269  and  _272
REMARK  112  A    between atoms: _272  and  _273
REMARK  113  A    between atoms: _276  and  _278
REMARK  114  A    between atoms: _278  and  _279
REMARK  115  A    between atoms: _278  and  _281
REMARK  116  A    between atoms: _281  and  _282
REMARK  117  A    between atoms: _285  and  _287
REMARK  118  A    between atoms: _287  and  _288
REMARK  119  A    between atoms: _287  and  _290
REMARK  120  A    between atoms: _290  and  _291
REMARK  121  A    between atoms: _291  and  _292
REMARK  122  A    between atoms: _294  and  _296
REMARK  123  A    between atoms: _296  and  _297
REMARK  124  A    between atoms: _296  and  _299
REMARK  125  A    between atoms: _299  and  _300
REMARK  126  A    between atoms: _300  and  _301
REMARK  127  A    between atoms: _301  and  _302
REMARK  128  A    between atoms: _302  and  _303
REMARK  129  A    between atoms: _307  and  _309
REMARK  130  A    between atoms: _309  and  _310
REMARK  131  A    between atoms: _309  and  _312
REMARK  132  A    between atoms: _312  and  _313
REMARK  133  A    between atoms: _319  and  _321
REMARK  134  A    between atoms: _321  and  _322
REMARK  135  A    between atoms: _321  and  _324
REMARK  136  A    between atoms: _327  and  _329
REMARK  137  A    between atoms: _329  and  _330
REMARK  138  A    between atoms: _329  and  _332
REMARK  139  A    between atoms: _332  and  _333
REMARK  140  A    between atoms: _336  and  _338
REMARK  141  A    between atoms: _338  and  _339
REMARK  142  A    between atoms: _338  and  _341
REMARK  143  A    between atoms: _341  and  _342
REMARK  144  A    between atoms: _344  and  _346
REMARK  145  A    between atoms: _346  and  _347
REMARK  146  A    between atoms: _346  and  _349
REMARK  147  A    between atoms: _349  and  _350
REMARK  148  A    between atoms: _353  and  _355
REMARK  149  A    between atoms: _355  and  _356
REMARK  150  A    between atoms: _358  and  _360
REMARK  151  A    between atoms: _360  and  _361
REMARK  152  A    between atoms: _360  and  _363
REMARK  153  A    between atoms: _363  and  _364
REMARK  154  A    between atoms: _367  and  _369
REMARK  155  A    between atoms: _369  and  _370
REMARK  156  A    between atoms: _369  and  _372
REMARK  157  A    between atoms: _375  and  _376
REMARK  158  A    between atoms: _381  and  _383
REMARK  159  A    between atoms: _383  and  _384
REMARK  160  A    between atoms: _383  and  _386
REMARK  161  A    between atoms: _386  and  _387
REMARK  162  A    between atoms: _390  and  _392
REMARK  163  A    between atoms: _392  and  _393
REMARK  164  A    between atoms: _392  and  _395
REMARK  165  A    between atoms: _398  and  _400
REMARK  166  A    between atoms: _400  and  _401
REMARK  167  A    between atoms: _400  and  _403
REMARK  168  A    between atoms: _406  and  _408
REMARK  169  A    between atoms: _408  and  _409
REMARK  170  A    between atoms: _408  and  _411
REMARK  171  A    between atoms: _411  and  _412
REMARK  172  A    between atoms: _416  and  _417
REMARK  173  A    between atoms: _422  and  _424
REMARK  174  A    between atoms: _424  and  _425
REMARK  175  A    between atoms: _424  and  _427
REMARK  176  A    between atoms: _427  and  _428
REMARK  177  A    between atoms: _433  and  _434
REMARK  178  A    between atoms: _436  and  _438
REMARK  179  A    between atoms: _438  and  _439
REMARK  180  A    between atoms: _438  and  _441
REMARK  181  A    between atoms: _441  and  _442
REMARK  182  A    between atoms: _442  and  _443
REMARK  183  A    between atoms: _445  and  _447
REMARK  184  A    between atoms: _447  and  _448
REMARK  185  A    between atoms: _447  and  _450
REMARK  186  A    between atoms: _450  and  _451
REMARK  187  A    between atoms: _451  and  _452
REMARK  188  A    between atoms: _452  and  _453
REMARK  189  A    between atoms: _453  and  _454
REMARK  190  A    between atoms: _458  and  _460
REMARK  191  A    between atoms: _460  and  _461
REMARK  192  A    between atoms: _460  and  _463
REMARK  193  A    between atoms: _463  and  _464
REMARK  194  A    between atoms: _469  and  _471
REMARK  195  A    between atoms: _471  and  _472
REMARK  196  A    between atoms: _474  and  _476
REMARK  197  A    between atoms: _476  and  _477
REMARK  198  A    between atoms: _476  and  _479
REMARK  199  A    between atoms: _479  and  _480
REMARK  200  A    between atoms: _483  and  _485
REMARK  201  A    between atoms: _485  and  _486
REMARK  202  A    between atoms: _485  and  _488
REMARK  203  A    between atoms: _488  and  _489
REMARK  204  A    between atoms: _494  and  _496
REMARK  205  A    between atoms: _496  and  _497
REMARK  206  A    between atoms: _496  and  _499
REMARK  207  A    between atoms: _499  and  _500
REMARK  208  A    between atoms: _503  and  _505
REMARK  209  A    between atoms: _505  and  _506
REMARK  210  A    between atoms: _505  and  _508
REMARK  211  A    between atoms: _508  and  _509
REMARK  212  A    between atoms: _515  and  _517
REMARK  213  A    between atoms: _517  and  _518
REMARK  214  A    between atoms: _517  and  _520
REMARK  215  A    between atoms: _520  and  _521
REMARK  216  A    between atoms: _526  and  _528
REMARK  217  A    between atoms: _528  and  _529
REMARK  218  A    between atoms: _528  and  _531
REMARK  219  A    between atoms: _531  and  _532
REMARK  220  A    between atoms: _532  and  _533
REMARK  221  A    between atoms: _533  and  _534
REMARK  222  A    between atoms: _543  and  _545
REMARK  223  A    between atoms: _545  and  _546
REMARK  224  A    between atoms: _545  and  _548
REMARK  225  A    between atoms: _548  and  _549
REMARK  226  A    between atoms: _554  and  _556
REMARK  227  A    between atoms: _556  and  _557
REMARK  228  A    between atoms: _556  and  _559
REMARK  229  A    between atoms: _561  and  _563
REMARK  230  A    between atoms: _563  and  _564
REMARK  231  A    between atoms: _563  and  _566
REMARK  232  A    between atoms: _566  and  _567
REMARK  233  A    between atoms: _567  and  _568
REMARK  234  A    between atoms: _570  and  _572
REMARK  235  A    between atoms: _572  and  _573
REMARK  236  A    between atoms: _572  and  _575
REMARK  237  A    between atoms: _575  and  _576
REMARK  238  A    between atoms: _579  and  _581
REMARK  239  A    between atoms: _581  and  _582
REMARK  240  A    between atoms: _581  and  _584
REMARK  241  A    between atoms: _584  and  _585
REMARK  242  A    between atoms: _585  and  _586
REMARK  243  A    between atoms: _586  and  _587
REMARK  244  A    between atoms: _587  and  _588
REMARK  245  A    between atoms: _592  and  _594
REMARK  246  A    between atoms: _594  and  _595
REMARK  247  A    between atoms: _594  and  _597
REMARK  248  A    between atoms: _600  and  _602
REMARK  249  A    between atoms: _602  and  _603
REMARK  250  A    between atoms: _606  and  _608
REMARK  251  A    between atoms: _608  and  _609
REMARK  252  A    between atoms: _608  and  _611
REMARK  253  A    between atoms: _611  and  _612
REMARK  254  A    between atoms: _615  and  _617
REMARK  255  A    between atoms: _617  and  _618
REMARK  256  A    between atoms: _617  and  _620
REMARK  257  A    between atoms: _620  and  _621
REMARK  258  A    between atoms: _627  and  _629
REMARK  259  A    between atoms: _629  and  _630
REMARK                            x       y       z     vdW  Elec       q    Type
REMARK                         _______ _______ _______ _____ _____    ______ ____
ROOT
ATOM      1  O   HOH     1      13.444   2.520 -20.812  0.00  0.00    +0.000 OA
ENDROOT
TORSDOF 0
REMARK  Name = ../refined-set-2016/3u6h/3u6h_pocket.pdb
REMARK  259 active torsions:
REMARK  status: ('A' for Active; 'I' for Inactive)
REMARK    1  A    between atoms: _1  and  _3
REMARK    2  A    between atoms: _3  and  _4
REMARK    3  A    between atoms: _3  and  _6
REMARK    4  A    between atoms: _9  and  _11
REMARK    5  A    between atoms: _11  and  _12
REMARK    6  A    between atoms: _11  and  _14
REMARK    7  A    between atoms: _17  and  _19
REMARK    8  A    between atoms: _19  and  _20
REMARK    9  A    between atoms: _19  and  _22
REMARK   10  A    between atoms: _22  and  _23
REMARK   11  A    between atoms: _26  and  _28
REMARK   12  A    between atoms: _28  and  _29
REMARK   13  A    between atoms: _31  and  _33
REMARK   14  A    between atoms: _33  and  _34
REMARK   15  A    between atoms: _33  and  _36
REMARK   16  A    between atoms: _36  and  _37
REMARK   17  A    between atoms: _37  and  _38
REMARK   18  A    between atoms: _38  and  _39
REMARK   19  A    between atoms: _48  and  _50
REMARK   20  A    between atoms: _50  and  _51
REMARK   21  A    between atoms: _53  and  _55
REMARK   22  A    between atoms: _55  and  _56
REMARK   23  A    between atoms: _55  and  _58
REMARK   24  A    between atoms: _58  and  _59
REMARK   25  A    between atoms: _64  and  _66
REMARK   26  A    between atoms: _66  and  _67
REMARK   27  A    between atoms: _66  and  _69
REMARK   28  A    between atoms: _69  and  _70
REMARK   29  A    between atoms: _76  and  _78
REMARK   30  A    between atoms: _78  and  _79
REMARK   31  A    between atoms: _81  and  _83
REMARK   32  A    between atoms: _83  and  _84
REMARK   33  A    between atoms: _83  and  _86
REMARK   34  A    between atoms: _88  and  _90
REMARK   35  A    between atoms: _90  and  _91
REMARK   36  A    between atoms: _90  and  _93
REMARK   37  A    between atoms: _96  and  _98
REMARK   38  A    between atoms: _98  and  _99
REMARK   39  A    between atoms: _98  and  _101
REMARK   40  A    between atoms: _101  and  _102
REMARK   41  A    between atoms: _107  and  _108
REMARK   42  A    between atoms: _110  and  _112
REMARK   43  A    between atoms: _112  and  _113
REMARK   44  A    between atoms: _112  and  _115
REMARK   45  A    between atoms: _115  and  _116
REMARK   46  A    between atoms: _121  and  _123
REMARK   47  A    between atoms: _123  and  _124
REMARK   48  A    between atoms: _123  and  _126
REMARK   49  A    between atoms: _126  and  _127
REMARK   50  A    between atoms: _132  and  _134
REMARK   51  A    between atoms: _134  and  _135
REMARK   52  A    between atoms: _134  and  _137
REMARK   53  A    between atoms: _139  and  _141
REMARK   54  A    between atoms: _141  and  _142
REMARK   55  A    between atoms: _145  and  _147
REMARK   56  A    between atoms: _147  and  _148
REMARK   57  A    between atoms: _147  and  _150
REMARK   58  A    between atoms: _153  and  _155
REMARK   59  A    between atoms: _155  and  _156
REMARK   60  A    between atoms: _155  and  _158
REMARK   61  A    between atoms: _158  and  _159
REMARK   62  A    between atoms: _159  and  _160
REMARK   63  A    between atoms: _160  and  _161
REMARK   64  A    between atoms: _161  and  _162
REMARK   65  A    between atoms: _166  and  _168
REMARK   66  A    between atoms: _168  and  _169
REMARK   67  A    between atoms: _168  and  _171
REMARK   68  A    between atoms: _171  and  _172
REMARK   69  A    between atoms: _174  and  _176
REMARK   70  A    between atoms: _176  and  _177
REMARK   71  A    between atoms: _176  and  _179
REMARK   72  A    between atoms: _179  and  _180
REMARK   73  A    between atoms: _183  and  _185
REMARK   74  A    between atoms: _185  and  _186
REMARK   75  A    between atoms: _185  and  _188
REMARK   76  A    between atoms: _188  and  _189
REMARK   77  A    between atoms: _192  and  _194
REMARK   78  A    between atoms: _194  and  _195
REMARK   79  A    between atoms: _194  and  _197
REMARK   80  A    between atoms: _197  and  _198
REMARK   81  A    between atoms: _198  and  _199
REMARK   82  A    between atoms: _202  and  _204
REMARK   83  A    between atoms: _204  and  _205
REMARK   84  A    between atoms: _204  and  _207
REMARK   85  A    between atoms: _210  and  _212
REMARK   86  A    between atoms: _212  and  _213
REMARK   87  A    between atoms: _212  and  _215
REMARK   88  A    between atoms: _215  and  _216
REMARK   89  A    between atoms: _216  and  _217
REMARK   90  A    between atoms: _222  and  _224
REMARK   91  A    between atoms: _224  and  _225
REMARK   92  A    between atoms: _224  and  _227
REMARK   93  A    between atoms: _227  and  _228
REMARK   94  A    between atoms: _234  and  _236
REMARK   95  A    between atoms: _236  and  _237
REMARK   96  A    between atoms: _236  and  _239
REMARK   97  A    between atoms: _239  and  _240
REMARK   98  A    between atoms: _243  and  _245
REMARK   99  A    between atoms: _245  and  _246
REMARK  100  A    between atoms: _245  and  _248
REMARK  101  A    between atoms: _248  and  _249
REMARK  102  A    between atoms: _252  and  _254
REMARK  103  A    between atoms: _254  and  _255
REMARK  104  A    between atoms: _254  and  _257
REMARK  105  A    between atoms: _257  and  _258
REMARK  106  A    between atoms: _258  and  _259
REMARK  107  A    between atoms: _262  and  _264
REMARK  108  A    between atoms: _264  and  _265
REMARK  109  A    between atoms: _267  and  _269
REMARK  110  A    between atoms: _269  and  _270
REMARK  111  A    between atoms: _269  and  _272
REMARK  112  A    between atoms: _272  and  _273
REMARK  113  A    between atoms: _276  and  _278
REMARK  114  A    between atoms: _278  and  _279
REMARK  115  A    between atoms: _278  and  _281
REMARK  116  A    between atoms: _281  and  _282
REMARK  117  A    between atoms: _285  and  _287
REMARK  118  A    between atoms: _287  and  _288
REMARK  119  A    between atoms: _287  and  _290
REMARK  120  A    between atoms: _290  and  _291
REMARK  121  A    between atoms: _291  and  _292
REMARK  122  A    between atoms: _294  and  _296
REMARK  123  A    between atoms: _296  and  _297
REMARK  124  A    between atoms: _296  and  _299
REMARK  125  A    between atoms: _299  and  _300
REMARK  126  A    between atoms: _300  and  _301
REMARK  127  A    between atoms: _301  and  _302
REMARK  128  A    between atoms: _302  and  _303
REMARK  129  A    between atoms: _307  and  _309
REMARK  130  A    between atoms: _309  and  _310
REMARK  131  A    between atoms: _309  and  _312
REMARK  132  A    between atoms: _312  and  _313
REMARK  133  A    between atoms: _319  and  _321
REMARK  134  A    between atoms: _321  and  _322
REMARK  135  A    between atoms: _321  and  _324
REMARK  136  A    between atoms: _327  and  _329
REMARK  137  A    between atoms: _329  and  _330
REMARK  138  A    between atoms: _329  and  _332
REMARK  139  A    between atoms: _332  and  _333
REMARK  140  A    between atoms: _336  and  _338
REMARK  141  A    between atoms: _338  and  _339
REMARK  142  A    between atoms: _338  and  _341
REMARK  143  A    between atoms: _341  and  _342
REMARK  144  A    between atoms: _344  and  _346
REMARK  145  A    between atoms: _346  and  _347
REMARK  146  A    between atoms: _346  and  _349
REMARK  147  A    between atoms: _349  and  _350
REMARK  148  A    between atoms: _353  and  _355
REMARK  149  A    between atoms: _355  and  _356
REMARK  150  A    between atoms: _358  and  _360
REMARK  151  A    between atoms: _360  and  _361
REMARK  152  A    between atoms: _360  and  _363
REMARK  153  A    between atoms: _363  and  _364
REMARK  154  A    between atoms: _367  and  _369
REMARK  155  A    between atoms: _369  and  _370
REMARK  156  A    between atoms: _369  and  _372
REMARK  157  A    between atoms: _375  and  _376
REMARK  158  A    between atoms: _381  and  _383
REMARK  159  A    between atoms: _383  and  _384
REMARK  160  A    between atoms: _383  and  _386
REMARK  161  A    between atoms: _386  and  _387
REMARK  162  A    between atoms: _390  and  _392
REMARK  163  A    between atoms: _392  and  _393
REMARK  164  A    between atoms: _392  and  _395
REMARK  165  A    between atoms: _398  and  _400
REMARK  166  A    between atoms: _400  and  _401
REMARK  167  A    between atoms: _400  and  _403
REMARK  168  A    between atoms: _406  and  _408
REMARK  169  A    between atoms: _408  and  _409
REMARK  170  A    between atoms: _408  and  _411
REMARK  171  A    between atoms: _411  and  _412
REMARK  172  A    between atoms: _416  and  _417
REMARK  173  A    between atoms: _422  and  _424
REMARK  174  A    between atoms: _424  and  _425
REMARK  175  A    between atoms: _424  and  _427
REMARK  176  A    between atoms: _427  and  _428
REMARK  177  A    between atoms: _433  and  _434
REMARK  178  A    between atoms: _436  and  _438
REMARK  179  A    between atoms: _438  and  _439
REMARK  180  A    between atoms: _438  and  _441
REMARK  181  A    between atoms: _441  and  _442
REMARK  182  A    between atoms: _442  and  _443
REMARK  183  A    between atoms: _445  and  _447
REMARK  184  A    between atoms: _447  and  _448
REMARK  185  A    between atoms: _447  and  _450
REMARK  186  A    between atoms: _450  and  _451
REMARK  187  A    between atoms: _451  and  _452
REMARK  188  A    between atoms: _452  and  _453
REMARK  189  A    between atoms: _453  and  _454
REMARK  190  A    between atoms: _458  and  _460
REMARK  191  A    between atoms: _460  and  _461
REMARK  192  A    between atoms: _460  and  _463
REMARK  193  A    between atoms: _463  and  _464
REMARK  194  A    between atoms: _469  and  _471
REMARK  195  A    between atoms: _471  and  _472
REMARK  196  A    between atoms: _474  and  _476
REMARK  197  A    between atoms: _476  and  _477
REMARK  198  A    between atoms: _476  and  _479
REMARK  199  A    between atoms: _479  and  _480
REMARK  200  A    between atoms: _483  and  _485
REMARK  201  A    between atoms: _485  and  _486
REMARK  202  A    between atoms: _485  and  _488
REMARK  203  A    between atoms: _488  and  _489
REMARK  204  A    between atoms: _494  and  _496
REMARK  205  A    between atoms: _496  and  _497
REMARK  206  A    between atoms: _496  and  _499
REMARK  207  A    between atoms: _499  and  _500
REMARK  208  A    between atoms: _503  and  _505
REMARK  209  A    between atoms: _505  and  _506
REMARK  210  A    between atoms: _505  and  _508
REMARK  211  A    between atoms: _508  and  _509
REMARK  212  A    between atoms: _515  and  _517
REMARK  213  A    between atoms: _517  and  _518
REMARK  214  A    between atoms: _517  and  _520
REMARK  215  A    between atoms: _520  and  _521
REMARK  216  A    between atoms: _526  and  _528
REMARK  217  A    between atoms: _528  and  _529
REMARK  218  A    between atoms: _528  and  _531
REMARK  219  A    between atoms: _531  and  _532
REMARK  220  A    between atoms: _532  and  _533
REMARK  221  A    between atoms: _533  and  _534
REMARK  222  A    between atoms: _543  and  _545
REMARK  223  A    between atoms: _545  and  _546
REMARK  224  A    between atoms: _545  and  _548
REMARK  225  A    between atoms: _548  and  _549
REMARK  226  A    between atoms: _554  and  _556
REMARK  227  A    between atoms: _556  and  _557
REMARK  228  A    between atoms: _556  and  _559
REMARK  229  A    between atoms: _561  and  _563
REMARK  230  A    between atoms: _563  and  _564
REMARK  231  A    between atoms: _563  and  _566
REMARK  232  A    between atoms: _566  and  _567
REMARK  233  A    between atoms: _567  and  _568
REMARK  234  A    between atoms: _570  and  _572
REMARK  235  A    between atoms: _572  and  _573
REMARK  236  A    between atoms: _572  and  _575
REMARK  237  A    between atoms: _575  and  _576
REMARK  238  A    between atoms: _579  and  _581
REMARK  239  A    between atoms: _581  and  _582
REMARK  240  A    between atoms: _581  and  _584
REMARK  241  A    between atoms: _584  and  _585
REMARK  242  A    between atoms: _585  and  _586
REMARK  243  A    between atoms: _586  and  _587
REMARK  244  A    between atoms: _587  and  _588
REMARK  245  A    between atoms: _592  and  _594
REMARK  246  A    between atoms: _594  and  _595
REMARK  247  A    between atoms: _594  and  _597
REMARK  248  A    between atoms: _600  and  _602
REMARK  249  A    between atoms: _602  and  _603
REMARK  250  A    between atoms: _606  and  _608
REMARK  251  A    between atoms: _608  and  _609
REMARK  252  A    between atoms: _608  and  _611
REMARK  253  A    between atoms: _611  and  _612
REMARK  254  A    between atoms: _615  and  _617
REMARK  255  A    between atoms: _617  and  _618
REMARK  256  A    between atoms: _617  and  _620
REMARK  257  A    between atoms: _620  and  _621
REMARK  258  A    between atoms: _627  and  _629
REMARK  259  A    between atoms: _629  and  _630
REMARK                            x       y       z     vdW  Elec       q    Type
REMARK                         _______ _______ _______ _____ _____    ______ ____
ROOT
ATOM      1  O   HOH     1      26.082  -0.512  -2.447  0.00  0.00    +0.000 OA
ENDROOT
TORSDOF 0
REMARK  Name = ../refined-set-2016/3u6h/3u6h_pocket.pdb
REMARK  259 active torsions:
REMARK  status: ('A' for Active; 'I' for Inactive)
REMARK    1  A    between atoms: _1  and  _3
REMARK    2  A    between atoms: _3  and  _4
REMARK    3  A    between atoms: _3  and  _6
REMARK    4  A    between atoms: _9  and  _11
REMARK    5  A    between atoms: _11  and  _12
REMARK    6  A    between atoms: _11  and  _14
REMARK    7  A    between atoms: _17  and  _19
REMARK    8  A    between atoms: _19  and  _20
REMARK    9  A    between atoms: _19  and  _22
REMARK   10  A    between atoms: _22  and  _23
REMARK   11  A    between atoms: _26  and  _28
REMARK   12  A    between atoms: _28  and  _29
REMARK   13  A    between atoms: _31  and  _33
REMARK   14  A    between atoms: _33  and  _34
REMARK   15  A    between atoms: _33  and  _36
REMARK   16  A    between atoms: _36  and  _37
REMARK   17  A    between atoms: _37  and  _38
REMARK   18  A    between atoms: _38  and  _39
REMARK   19  A    between atoms: _48  and  _50
REMARK   20  A    between atoms: _50  and  _51
REMARK   21  A    between atoms: _53  and  _55
REMARK   22  A    between atoms: _55  and  _56
REMARK   23  A    between atoms: _55  and  _58
REMARK   24  A    between atoms: _58  and  _59
REMARK   25  A    between atoms: _64  and  _66
REMARK   26  A    between atoms: _66  and  _67
REMARK   27  A    between atoms: _66  and  _69
REMARK   28  A    between atoms: _69  and  _70
REMARK   29  A    between atoms: _76  and  _78
REMARK   30  A    between atoms: _78  and  _79
REMARK   31  A    between atoms: _81  and  _83
REMARK   32  A    between atoms: _83  and  _84
REMARK   33  A    between atoms: _83  and  _86
REMARK   34  A    between atoms: _88  and  _90
REMARK   35  A    between atoms: _90  and  _91
REMARK   36  A    between atoms: _90  and  _93
REMARK   37  A    between atoms: _96  and  _98
REMARK   38  A    between atoms: _98  and  _99
REMARK   39  A    between atoms: _98  and  _101
REMARK   40  A    between atoms: _101  and  _102
REMARK   41  A    between atoms: _107  and  _108
REMARK   42  A    between atoms: _110  and  _112
REMARK   43  A    between atoms: _112  and  _113
REMARK   44  A    between atoms: _112  and  _115
REMARK   45  A    between atoms: _115  and  _116
REMARK   46  A    between atoms: _121  and  _123
REMARK   47  A    between atoms: _123  and  _124
REMARK   48  A    between atoms: _123  and  _126
REMARK   49  A    between atoms: _126  and  _127
REMARK   50  A    between atoms: _132  and  _134
REMARK   51  A    between atoms: _134  and  _135
REMARK   52  A    between atoms: _134  and  _137
REMARK   53  A    between atoms: _139  and  _141
REMARK   54  A    between atoms: _141  and  _142
REMARK   55  A    between atoms: _145  and  _147
REMARK   56  A    between atoms: _147  and  _148
REMARK   57  A    between atoms: _147  and  _150
REMARK   58  A    between atoms: _153  and  _155
REMARK   59  A    between atoms: _155  and  _156
REMARK   60  A    between atoms: _155  and  _158
REMARK   61  A    between atoms: _158  and  _159
REMARK   62  A    between atoms: _159  and  _160
REMARK   63  A    between atoms: _160  and  _161
REMARK   64  A    between atoms: _161  and  _162
REMARK   65  A    between atoms: _166  and  _168
REMARK   66  A    between atoms: _168  and  _169
REMARK   67  A    between atoms: _168  and  _171
REMARK   68  A    between atoms: _171  and  _172
REMARK   69  A    between atoms: _174  and  _176
REMARK   70  A    between atoms: _176  and  _177
REMARK   71  A    between atoms: _176  and  _179
REMARK   72  A    between atoms: _179  and  _180
REMARK   73  A    between atoms: _183  and  _185
REMARK   74  A    between atoms: _185  and  _186
REMARK   75  A    between atoms: _185  and  _188
REMARK   76  A    between atoms: _188  and  _189
REMARK   77  A    between atoms: _192  and  _194
REMARK   78  A    between atoms: _194  and  _195
REMARK   79  A    between atoms: _194  and  _197
REMARK   80  A    between atoms: _197  and  _198
REMARK   81  A    between atoms: _198  and  _199
REMARK   82  A    between atoms: _202  and  _204
REMARK   83  A    between atoms: _204  and  _205
REMARK   84  A    between atoms: _204  and  _207
REMARK   85  A    between atoms: _210  and  _212
REMARK   86  A    between atoms: _212  and  _213
REMARK   87  A    between atoms: _212  and  _215
REMARK   88  A    between atoms: _215  and  _216
REMARK   89  A    between atoms: _216  and  _217
REMARK   90  A    between atoms: _222  and  _224
REMARK   91  A    between atoms: _224  and  _225
REMARK   92  A    between atoms: _224  and  _227
REMARK   93  A    between atoms: _227  and  _228
REMARK   94  A    between atoms: _234  and  _236
REMARK   95  A    between atoms: _236  and  _237
REMARK   96  A    between atoms: _236  and  _239
REMARK   97  A    between atoms: _239  and  _240
REMARK   98  A    between atoms: _243  and  _245
REMARK   99  A    between atoms: _245  and  _246
REMARK  100  A    between atoms: _245  and  _248
REMARK  101  A    between atoms: _248  and  _249
REMARK  102  A    between atoms: _252  and  _254
REMARK  103  A    between atoms: _254  and  _255
REMARK  104  A    between atoms: _254  and  _257
REMARK  105  A    between atoms: _257  and  _258
REMARK  106  A    between atoms: _258  and  _259
REMARK  107  A    between atoms: _262  and  _264
REMARK  108  A    between atoms: _264  and  _265
REMARK  109  A    between atoms: _267  and  _269
REMARK  110  A    between atoms: _269  and  _270
REMARK  111  A    between atoms: _269  and  _272
REMARK  112  A    between atoms: _272  and  _273
REMARK  113  A    between atoms: _276  and  _278
REMARK  114  A    between atoms: _278  and  _279
REMARK  115  A    between atoms: _278  and  _281
REMARK  116  A    between atoms: _281  and  _282
REMARK  117  A    between atoms: _285  and  _287
REMARK  118  A    between atoms: _287  and  _288
REMARK  119  A    between atoms: _287  and  _290
REMARK  120  A    between atoms: _290  and  _291
REMARK  121  A    between atoms: _291  and  _292
REMARK  122  A    between atoms: _294  and  _296
REMARK  123  A    between atoms: _296  and  _297
REMARK  124  A    between atoms: _296  and  _299
REMARK  125  A    between atoms: _299  and  _300
REMARK  126  A    between atoms: _300  and  _301
REMARK  127  A    between atoms: _301  and  _302
REMARK  128  A    between atoms: _302  and  _303
REMARK  129  A    between atoms: _307  and  _309
REMARK  130  A    between atoms: _309  and  _310
REMARK  131  A    between atoms: _309  and  _312
REMARK  132  A    between atoms: _312  and  _313
REMARK  133  A    between atoms: _319  and  _321
REMARK  134  A    between atoms: _321  and  _322
REMARK  135  A    between atoms: _321  and  _324
REMARK  136  A    between atoms: _327  and  _329
REMARK  137  A    between atoms: _329  and  _330
REMARK  138  A    between atoms: _329  and  _332
REMARK  139  A    between atoms: _332  and  _333
REMARK  140  A    between atoms: _336  and  _338
REMARK  141  A    between atoms: _338  and  _339
REMARK  142  A    between atoms: _338  and  _341
REMARK  143  A    between atoms: _341  and  _342
REMARK  144  A    between atoms: _344  and  _346
REMARK  145  A    between atoms: _346  and  _347
REMARK  146  A    between atoms: _346  and  _349
REMARK  147  A    between atoms: _349  and  _350
REMARK  148  A    between atoms: _353  and  _355
REMARK  149  A    between atoms: _355  and  _356
REMARK  150  A    between atoms: _358  and  _360
REMARK  151  A    between atoms: _360  and  _361
REMARK  152  A    between atoms: _360  and  _363
REMARK  153  A    between atoms: _363  and  _364
REMARK  154  A    between atoms: _367  and  _369
REMARK  155  A    between atoms: _369  and  _370
REMARK  156  A    between atoms: _369  and  _372
REMARK  157  A    between atoms: _375  and  _376
REMARK  158  A    between atoms: _381  and  _383
REMARK  159  A    between atoms: _383  and  _384
REMARK  160  A    between atoms: _383  and  _386
REMARK  161  A    between atoms: _386  and  _387
REMARK  162  A    between atoms: _390  and  _392
REMARK  163  A    between atoms: _392  and  _393
REMARK  164  A    between atoms: _392  and  _395
REMARK  165  A    between atoms: _398  and  _400
REMARK  166  A    between atoms: _400  and  _401
REMARK  167  A    between atoms: _400  and  _403
REMARK  168  A    between atoms: _406  and  _408
REMARK  169  A    between atoms: _408  and  _409
REMARK  170  A    between atoms: _408  and  _411
REMARK  171  A    between atoms: _411  and  _412
REMARK  172  A    between atoms: _416  and  _417
REMARK  173  A    between atoms: _422  and  _424
REMARK  174  A    between atoms: _424  and  _425
REMARK  175  A    between atoms: _424  and  _427
REMARK  176  A    between atoms: _427  and  _428
REMARK  177  A    between atoms: _433  and  _434
REMARK  178  A    between atoms: _436  and  _438
REMARK  179  A    between atoms: _438  and  _439
REMARK  180  A    between atoms: _438  and  _441
REMARK  181  A    between atoms: _441  and  _442
REMARK  182  A    between atoms: _442  and  _443
REMARK  183  A    between atoms: _445  and  _447
REMARK  184  A    between atoms: _447  and  _448
REMARK  185  A    between atoms: _447  and  _450
REMARK  186  A    between atoms: _450  and  _451
REMARK  187  A    between atoms: _451  and  _452
REMARK  188  A    between atoms: _452  and  _453
REMARK  189  A    between atoms: _453  and  _454
REMARK  190  A    between atoms: _458  and  _460
REMARK  191  A    between atoms: _460  and  _461
REMARK  192  A    between atoms: _460  and  _463
REMARK  193  A    between atoms: _463  and  _464
REMARK  194  A    between atoms: _469  and  _471
REMARK  195  A    between atoms: _471  and  _472
REMARK  196  A    between atoms: _474  and  _476
REMARK  197  A    between atoms: _476  and  _477
REMARK  198  A    between atoms: _476  and  _479
REMARK  199  A    between atoms: _479  and  _480
REMARK  200  A    between atoms: _483  and  _485
REMARK  201  A    between atoms: _485  and  _486
REMARK  202  A    between atoms: _485  and  _488
REMARK  203  A    between atoms: _488  and  _489
REMARK  204  A    between atoms: _494  and  _496
REMARK  205  A    between atoms: _496  and  _497
REMARK  206  A    between atoms: _496  and  _499
REMARK  207  A    between atoms: _499  and  _500
REMARK  208  A    between atoms: _503  and  _505
REMARK  209  A    between atoms: _505  and  _506
REMARK  210  A    between atoms: _505  and  _508
REMARK  211  A    between atoms: _508  and  _509
REMARK  212  A    between atoms: _515  and  _517
REMARK  213  A    between atoms: _517  and  _518
REMARK  214  A    between atoms: _517  and  _520
REMARK  215  A    between atoms: _520  and  _521
REMARK  216  A    between atoms: _526  and  _528
REMARK  217  A    between atoms: _528  and  _529
REMARK  218  A    between atoms: _528  and  _531
REMARK  219  A    between atoms: _531  and  _532
REMARK  220  A    between atoms: _532  and  _533
REMARK  221  A    between atoms: _533  and  _534
REMARK  222  A    between atoms: _543  and  _545
REMARK  223  A    between atoms: _545  and  _546
REMARK  224  A    between atoms: _545  and  _548
REMARK  225  A    between atoms: _548  and  _549
REMARK  226  A    between atoms: _554  and  _556
REMARK  227  A    between atoms: _556  and  _557
REMARK  228  A    between atoms: _556  and  _559
REMARK  229  A    between atoms: _561  and  _563
REMARK  230  A    between atoms: _563  and  _564
REMARK  231  A    between atoms: _563  and  _566
REMARK  232  A    between atoms: _566  and  _567
REMARK  233  A    between atoms: _567  and  _568
REMARK  234  A    between atoms: _570  and  _572
REMARK  235  A    between atoms: _572  and  _573
REMARK  236  A    between atoms: _572  and  _575
REMARK  237  A    between atoms: _575  and  _576
REMARK  238  A    between atoms: _579  and  _581
REMARK  239  A    between atoms: _581  and  _582
REMARK  240  A    between atoms: _581  and  _584
REMARK  241  A    between atoms: _584  and  _585
REMARK  242  A    between atoms: _585  and  _586
REMARK  243  A    between atoms: _586  and  _587
REMARK  244  A    between atoms: _587  and  _588
REMARK  245  A    between atoms: _592  and  _594
REMARK  246  A    between atoms: _594  and  _595
REMARK  247  A    between atoms: _594  and  _597
REMARK  248  A    between atoms: _600  and  _602
REMARK  249  A    between atoms: _602  and  _603
REMARK  250  A    between atoms: _606  and  _608
REMARK  251  A    between atoms: _608  and  _609
REMARK  252  A    between atoms: _608  and  _611
REMARK  253  A    between atoms: _611  and  _612
REMARK  254  A    between atoms: _615  and  _617
REMARK  255  A    between atoms: _617  and  _618
REMARK  256  A    between atoms: _617  and  _620
REMARK  257  A    between atoms: _620  and  _621
REMARK  258  A    between atoms: _627  and  _629
REMARK  259  A    between atoms: _629  and  _630
REMARK                            x       y       z     vdW  Elec       q    Type
REMARK                         _______ _______ _______ _____ _____    ______ ____
ROOT
ATOM      1  O   HOH     1      18.306  10.998 -26.685  0.00  0.00    +0.000 OA
ENDROOT
TORSDOF 0
REMARK  Name = ../refined-set-2016/3u6h/3u6h_pocket.pdb
REMARK  259 active torsions:
REMARK  status: ('A' for Active; 'I' for Inactive)
REMARK    1  A    between atoms: _1  and  _3
REMARK    2  A    between atoms: _3  and  _4
REMARK    3  A    between atoms: _3  and  _6
REMARK    4  A    between atoms: _9  and  _11
REMARK    5  A    between atoms: _11  and  _12
REMARK    6  A    between atoms: _11  and  _14
REMARK    7  A    between atoms: _17  and  _19
REMARK    8  A    between atoms: _19  and  _20
REMARK    9  A    between atoms: _19  and  _22
REMARK   10  A    between atoms: _22  and  _23
REMARK   11  A    between atoms: _26  and  _28
REMARK   12  A    between atoms: _28  and  _29
REMARK   13  A    between atoms: _31  and  _33
REMARK   14  A    between atoms: _33  and  _34
REMARK   15  A    between atoms: _33  and  _36
REMARK   16  A    between atoms: _36  and  _37
REMARK   17  A    between atoms: _37  and  _38
REMARK   18  A    between atoms: _38  and  _39
REMARK   19  A    between atoms: _48  and  _50
REMARK   20  A    between atoms: _50  and  _51
REMARK   21  A    between atoms: _53  and  _55
REMARK   22  A    between atoms: _55  and  _56
REMARK   23  A    between atoms: _55  and  _58
REMARK   24  A    between atoms: _58  and  _59
REMARK   25  A    between atoms: _64  and  _66
REMARK   26  A    between atoms: _66  and  _67
REMARK   27  A    between atoms: _66  and  _69
REMARK   28  A    between atoms: _69  and  _70
REMARK   29  A    between atoms: _76  and  _78
REMARK   30  A    between atoms: _78  and  _79
REMARK   31  A    between atoms: _81  and  _83
REMARK   32  A    between atoms: _83  and  _84
REMARK   33  A    between atoms: _83  and  _86
REMARK   34  A    between atoms: _88  and  _90
REMARK   35  A    between atoms: _90  and  _91
REMARK   36  A    between atoms: _90  and  _93
REMARK   37  A    between atoms: _96  and  _98
REMARK   38  A    between atoms: _98  and  _99
REMARK   39  A    between atoms: _98  and  _101
REMARK   40  A    between atoms: _101  and  _102
REMARK   41  A    between atoms: _107  and  _108
REMARK   42  A    between atoms: _110  and  _112
REMARK   43  A    between atoms: _112  and  _113
REMARK   44  A    between atoms: _112  and  _115
REMARK   45  A    between atoms: _115  and  _116
REMARK   46  A    between atoms: _121  and  _123
REMARK   47  A    between atoms: _123  and  _124
REMARK   48  A    between atoms: _123  and  _126
REMARK   49  A    between atoms: _126  and  _127
REMARK   50  A    between atoms: _132  and  _134
REMARK   51  A    between atoms: _134  and  _135
REMARK   52  A    between atoms: _134  and  _137
REMARK   53  A    between atoms: _139  and  _141
REMARK   54  A    between atoms: _141  and  _142
REMARK   55  A    between atoms: _145  and  _147
REMARK   56  A    between atoms: _147  and  _148
REMARK   57  A    between atoms: _147  and  _150
REMARK   58  A    between atoms: _153  and  _155
REMARK   59  A    between atoms: _155  and  _156
REMARK   60  A    between atoms: _155  and  _158
REMARK   61  A    between atoms: _158  and  _159
REMARK   62  A    between atoms: _159  and  _160
REMARK   63  A    between atoms: _160  and  _161
REMARK   64  A    between atoms: _161  and  _162
REMARK   65  A    between atoms: _166  and  _168
REMARK   66  A    between atoms: _168  and  _169
REMARK   67  A    between atoms: _168  and  _171
REMARK   68  A    between atoms: _171  and  _172
REMARK   69  A    between atoms: _174  and  _176
REMARK   70  A    between atoms: _176  and  _177
REMARK   71  A    between atoms: _176  and  _179
REMARK   72  A    between atoms: _179  and  _180
REMARK   73  A    between atoms: _183  and  _185
REMARK   74  A    between atoms: _185  and  _186
REMARK   75  A    between atoms: _185  and  _188
REMARK   76  A    between atoms: _188  and  _189
REMARK   77  A    between atoms: _192  and  _194
REMARK   78  A    between atoms: _194  and  _195
REMARK   79  A    between atoms: _194  and  _197
REMARK   80  A    between atoms: _197  and  _198
REMARK   81  A    between atoms: _198  and  _199
REMARK   82  A    between atoms: _202  and  _204
REMARK   83  A    between atoms: _204  and  _205
REMARK   84  A    between atoms: _204  and  _207
REMARK   85  A    between atoms: _210  and  _212
REMARK   86  A    between atoms: _212  and  _213
REMARK   87  A    between atoms: _212  and  _215
REMARK   88  A    between atoms: _215  and  _216
REMARK   89  A    between atoms: _216  and  _217
REMARK   90  A    between atoms: _222  and  _224
REMARK   91  A    between atoms: _224  and  _225
REMARK   92  A    between atoms: _224  and  _227
REMARK   93  A    between atoms: _227  and  _228
REMARK   94  A    between atoms: _234  and  _236
REMARK   95  A    between atoms: _236  and  _237
REMARK   96  A    between atoms: _236  and  _239
REMARK   97  A    between atoms: _239  and  _240
REMARK   98  A    between atoms: _243  and  _245
REMARK   99  A    between atoms: _245  and  _246
REMARK  100  A    between atoms: _245  and  _248
REMARK  101  A    between atoms: _248  and  _249
REMARK  102  A    between atoms: _252  and  _254
REMARK  103  A    between atoms: _254  and  _255
REMARK  104  A    between atoms: _254  and  _257
REMARK  105  A    between atoms: _257  and  _258
REMARK  106  A    between atoms: _258  and  _259
REMARK  107  A    between atoms: _262  and  _264
REMARK  108  A    between atoms: _264  and  _265
REMARK  109  A    between atoms: _267  and  _269
REMARK  110  A    between atoms: _269  and  _270
REMARK  111  A    between atoms: _269  and  _272
REMARK  112  A    between atoms: _272  and  _273
REMARK  113  A    between atoms: _276  and  _278
REMARK  114  A    between atoms: _278  and  _279
REMARK  115  A    between atoms: _278  and  _281
REMARK  116  A    between atoms: _281  and  _282
REMARK  117  A    between atoms: _285  and  _287
REMARK  118  A    between atoms: _287  and  _288
REMARK  119  A    between atoms: _287  and  _290
REMARK  120  A    between atoms: _290  and  _291
REMARK  121  A    between atoms: _291  and  _292
REMARK  122  A    between atoms: _294  and  _296
REMARK  123  A    between atoms: _296  and  _297
REMARK  124  A    between atoms: _296  and  _299
REMARK  125  A    between atoms: _299  and  _300
REMARK  126  A    between atoms: _300  and  _301
REMARK  127  A    between atoms: _301  and  _302
REMARK  128  A    between atoms: _302  and  _303
REMARK  129  A    between atoms: _307  and  _309
REMARK  130  A    between atoms: _309  and  _310
REMARK  131  A    between atoms: _309  and  _312
REMARK  132  A    between atoms: _312  and  _313
REMARK  133  A    between atoms: _319  and  _321
REMARK  134  A    between atoms: _321  and  _322
REMARK  135  A    between atoms: _321  and  _324
REMARK  136  A    between atoms: _327  and  _329
REMARK  137  A    between atoms: _329  and  _330
REMARK  138  A    between atoms: _329  and  _332
REMARK  139  A    between atoms: _332  and  _333
REMARK  140  A    between atoms: _336  and  _338
REMARK  141  A    between atoms: _338  and  _339
REMARK  142  A    between atoms: _338  and  _341
REMARK  143  A    between atoms: _341  and  _342
REMARK  144  A    between atoms: _344  and  _346
REMARK  145  A    between atoms: _346  and  _347
REMARK  146  A    between atoms: _346  and  _349
REMARK  147  A    between atoms: _349  and  _350
REMARK  148  A    between atoms: _353  and  _355
REMARK  149  A    between atoms: _355  and  _356
REMARK  150  A    between atoms: _358  and  _360
REMARK  151  A    between atoms: _360  and  _361
REMARK  152  A    between atoms: _360  and  _363
REMARK  153  A    between atoms: _363  and  _364
REMARK  154  A    between atoms: _367  and  _369
REMARK  155  A    between atoms: _369  and  _370
REMARK  156  A    between atoms: _369  and  _372
REMARK  157  A    between atoms: _375  and  _376
REMARK  158  A    between atoms: _381  and  _383
REMARK  159  A    between atoms: _383  and  _384
REMARK  160  A    between atoms: _383  and  _386
REMARK  161  A    between atoms: _386  and  _387
REMARK  162  A    between atoms: _390  and  _392
REMARK  163  A    between atoms: _392  and  _393
REMARK  164  A    between atoms: _392  and  _395
REMARK  165  A    between atoms: _398  and  _400
REMARK  166  A    between atoms: _400  and  _401
REMARK  167  A    between atoms: _400  and  _403
REMARK  168  A    between atoms: _406  and  _408
REMARK  169  A    between atoms: _408  and  _409
REMARK  170  A    between atoms: _408  and  _411
REMARK  171  A    between atoms: _411  and  _412
REMARK  172  A    between atoms: _416  and  _417
REMARK  173  A    between atoms: _422  and  _424
REMARK  174  A    between atoms: _424  and  _425
REMARK  175  A    between atoms: _424  and  _427
REMARK  176  A    between atoms: _427  and  _428
REMARK  177  A    between atoms: _433  and  _434
REMARK  178  A    between atoms: _436  and  _438
REMARK  179  A    between atoms: _438  and  _439
REMARK  180  A    between atoms: _438  and  _441
REMARK  181  A    between atoms: _441  and  _442
REMARK  182  A    between atoms: _442  and  _443
REMARK  183  A    between atoms: _445  and  _447
REMARK  184  A    between atoms: _447  and  _448
REMARK  185  A    between atoms: _447  and  _450
REMARK  186  A    between atoms: _450  and  _451
REMARK  187  A    between atoms: _451  and  _452
REMARK  188  A    between atoms: _452  and  _453
REMARK  189  A    between atoms: _453  and  _454
REMARK  190  A    between atoms: _458  and  _460
REMARK  191  A    between atoms: _460  and  _461
REMARK  192  A    between atoms: _460  and  _463
REMARK  193  A    between atoms: _463  and  _464
REMARK  194  A    between atoms: _469  and  _471
REMARK  195  A    between atoms: _471  and  _472
REMARK  196  A    between atoms: _474  and  _476
REMARK  197  A    between atoms: _476  and  _477
REMARK  198  A    between atoms: _476  and  _479
REMARK  199  A    between atoms: _479  and  _480
REMARK  200  A    between atoms: _483  and  _485
REMARK  201  A    between atoms: _485  and  _486
REMARK  202  A    between atoms: _485  and  _488
REMARK  203  A    between atoms: _488  and  _489
REMARK  204  A    between atoms: _494  and  _496
REMARK  205  A    between atoms: _496  and  _497
REMARK  206  A    between atoms: _496  and  _499
REMARK  207  A    between atoms: _499  and  _500
REMARK  208  A    between atoms: _503  and  _505
REMARK  209  A    between atoms: _505  and  _506
REMARK  210  A    between atoms: _505  and  _508
REMARK  211  A    between atoms: _508  and  _509
REMARK  212  A    between atoms: _515  and  _517
REMARK  213  A    between atoms: _517  and  _518
REMARK  214  A    between atoms: _517  and  _520
REMARK  215  A    between atoms: _520  and  _521
REMARK  216  A    between atoms: _526  and  _528
REMARK  217  A    between atoms: _528  and  _529
REMARK  218  A    between atoms: _528  and  _531
REMARK  219  A    between atoms: _531  and  _532
REMARK  220  A    between atoms: _532  and  _533
REMARK  221  A    between atoms: _533  and  _534
REMARK  222  A    between atoms: _543  and  _545
REMARK  223  A    between atoms: _545  and  _546
REMARK  224  A    between atoms: _545  and  _548
REMARK  225  A    between atoms: _548  and  _549
REMARK  226  A    between atoms: _554  and  _556
REMARK  227  A    between atoms: _556  and  _557
REMARK  228  A    between atoms: _556  and  _559
REMARK  229  A    between atoms: _561  and  _563
REMARK  230  A    between atoms: _563  and  _564
REMARK  231  A    between atoms: _563  and  _566
REMARK  232  A    between atoms: _566  and  _567
REMARK  233  A    between atoms: _567  and  _568
REMARK  234  A    between atoms: _570  and  _572
REMARK  235  A    between atoms: _572  and  _573
REMARK  236  A    between atoms: _572  and  _575
REMARK  237  A    between atoms: _575  and  _576
REMARK  238  A    between atoms: _579  and  _581
REMARK  239  A    between atoms: _581  and  _582
REMARK  240  A    between atoms: _581  and  _584
REMARK  241  A    between atoms: _584  and  _585
REMARK  242  A    between atoms: _585  and  _586
REMARK  243  A    between atoms: _586  and  _587
REMARK  244  A    between atoms: _587  and  _588
REMARK  245  A    between atoms: _592  and  _594
REMARK  246  A    between atoms: _594  and  _595
REMARK  247  A    between atoms: _594  and  _597
REMARK  248  A    between atoms: _600  and  _602
REMARK  249  A    between atoms: _602  and  _603
REMARK  250  A    between atoms: _606  and  _608
REMARK  251  A    between atoms: _608  and  _609
REMARK  252  A    between atoms: _608  and  _611
REMARK  253  A    between atoms: _611  and  _612
REMARK  254  A    between atoms: _615  and  _617
REMARK  255  A    between atoms: _617  and  _618
REMARK  256  A    between atoms: _617  and  _620
REMARK  257  A    between atoms: _620  and  _621
REMARK  258  A    between atoms: _627  and  _629
REMARK  259  A    between atoms: _629  and  _630
REMARK                            x       y       z     vdW  Elec       q    Type
REMARK                         _______ _______ _______ _____ _____    ______ ____
ROOT
ATOM      1  O   HOH     1      20.733  10.623 -27.070  0.00  0.00    +0.000 OA
ENDROOT
TORSDOF 0
REMARK  Name = ../refined-set-2016/3u6h/3u6h_pocket.pdb
REMARK  259 active torsions:
REMARK  status: ('A' for Active; 'I' for Inactive)
REMARK    1  A    between atoms: _1  and  _3
REMARK    2  A    between atoms: _3  and  _4
REMARK    3  A    between atoms: _3  and  _6
REMARK    4  A    between atoms: _9  and  _11
REMARK    5  A    between atoms: _11  and  _12
REMARK    6  A    between atoms: _11  and  _14
REMARK    7  A    between atoms: _17  and  _19
REMARK    8  A    between atoms: _19  and  _20
REMARK    9  A    between atoms: _19  and  _22
REMARK   10  A    between atoms: _22  and  _23
REMARK   11  A    between atoms: _26  and  _28
REMARK   12  A    between atoms: _28  and  _29
REMARK   13  A    between atoms: _31  and  _33
REMARK   14  A    between atoms: _33  and  _34
REMARK   15  A    between atoms: _33  and  _36
REMARK   16  A    between atoms: _36  and  _37
REMARK   17  A    between atoms: _37  and  _38
REMARK   18  A    between atoms: _38  and  _39
REMARK   19  A    between atoms: _48  and  _50
REMARK   20  A    between atoms: _50  and  _51
REMARK   21  A    between atoms: _53  and  _55
REMARK   22  A    between atoms: _55  and  _56
REMARK   23  A    between atoms: _55  and  _58
REMARK   24  A    between atoms: _58  and  _59
REMARK   25  A    between atoms: _64  and  _66
REMARK   26  A    between atoms: _66  and  _67
REMARK   27  A    between atoms: _66  and  _69
REMARK   28  A    between atoms: _69  and  _70
REMARK   29  A    between atoms: _76  and  _78
REMARK   30  A    between atoms: _78  and  _79
REMARK   31  A    between atoms: _81  and  _83
REMARK   32  A    between atoms: _83  and  _84
REMARK   33  A    between atoms: _83  and  _86
REMARK   34  A    between atoms: _88  and  _90
REMARK   35  A    between atoms: _90  and  _91
REMARK   36  A    between atoms: _90  and  _93
REMARK   37  A    between atoms: _96  and  _98
REMARK   38  A    between atoms: _98  and  _99
REMARK   39  A    between atoms: _98  and  _101
REMARK   40  A    between atoms: _101  and  _102
REMARK   41  A    between atoms: _107  and  _108
REMARK   42  A    between atoms: _110  and  _112
REMARK   43  A    between atoms: _112  and  _113
REMARK   44  A    between atoms: _112  and  _115
REMARK   45  A    between atoms: _115  and  _116
REMARK   46  A    between atoms: _121  and  _123
REMARK   47  A    between atoms: _123  and  _124
REMARK   48  A    between atoms: _123  and  _126
REMARK   49  A    between atoms: _126  and  _127
REMARK   50  A    between atoms: _132  and  _134
REMARK   51  A    between atoms: _134  and  _135
REMARK   52  A    between atoms: _134  and  _137
REMARK   53  A    between atoms: _139  and  _141
REMARK   54  A    between atoms: _141  and  _142
REMARK   55  A    between atoms: _145  and  _147
REMARK   56  A    between atoms: _147  and  _148
REMARK   57  A    between atoms: _147  and  _150
REMARK   58  A    between atoms: _153  and  _155
REMARK   59  A    between atoms: _155  and  _156
REMARK   60  A    between atoms: _155  and  _158
REMARK   61  A    between atoms: _158  and  _159
REMARK   62  A    between atoms: _159  and  _160
REMARK   63  A    between atoms: _160  and  _161
REMARK   64  A    between atoms: _161  and  _162
REMARK   65  A    between atoms: _166  and  _168
REMARK   66  A    between atoms: _168  and  _169
REMARK   67  A    between atoms: _168  and  _171
REMARK   68  A    between atoms: _171  and  _172
REMARK   69  A    between atoms: _174  and  _176
REMARK   70  A    between atoms: _176  and  _177
REMARK   71  A    between atoms: _176  and  _179
REMARK   72  A    between atoms: _179  and  _180
REMARK   73  A    between atoms: _183  and  _185
REMARK   74  A    between atoms: _185  and  _186
REMARK   75  A    between atoms: _185  and  _188
REMARK   76  A    between atoms: _188  and  _189
REMARK   77  A    between atoms: _192  and  _194
REMARK   78  A    between atoms: _194  and  _195
REMARK   79  A    between atoms: _194  and  _197
REMARK   80  A    between atoms: _197  and  _198
REMARK   81  A    between atoms: _198  and  _199
REMARK   82  A    between atoms: _202  and  _204
REMARK   83  A    between atoms: _204  and  _205
REMARK   84  A    between atoms: _204  and  _207
REMARK   85  A    between atoms: _210  and  _212
REMARK   86  A    between atoms: _212  and  _213
REMARK   87  A    between atoms: _212  and  _215
REMARK   88  A    between atoms: _215  and  _216
REMARK   89  A    between atoms: _216  and  _217
REMARK   90  A    between atoms: _222  and  _224
REMARK   91  A    between atoms: _224  and  _225
REMARK   92  A    between atoms: _224  and  _227
REMARK   93  A    between atoms: _227  and  _228
REMARK   94  A    between atoms: _234  and  _236
REMARK   95  A    between atoms: _236  and  _237
REMARK   96  A    between atoms: _236  and  _239
REMARK   97  A    between atoms: _239  and  _240
REMARK   98  A    between atoms: _243  and  _245
REMARK   99  A    between atoms: _245  and  _246
REMARK  100  A    between atoms: _245  and  _248
REMARK  101  A    between atoms: _248  and  _249
REMARK  102  A    between atoms: _252  and  _254
REMARK  103  A    between atoms: _254  and  _255
REMARK  104  A    between atoms: _254  and  _257
REMARK  105  A    between atoms: _257  and  _258
REMARK  106  A    between atoms: _258  and  _259
REMARK  107  A    between atoms: _262  and  _264
REMARK  108  A    between atoms: _264  and  _265
REMARK  109  A    between atoms: _267  and  _269
REMARK  110  A    between atoms: _269  and  _270
REMARK  111  A    between atoms: _269  and  _272
REMARK  112  A    between atoms: _272  and  _273
REMARK  113  A    between atoms: _276  and  _278
REMARK  114  A    between atoms: _278  and  _279
REMARK  115  A    between atoms: _278  and  _281
REMARK  116  A    between atoms: _281  and  _282
REMARK  117  A    between atoms: _285  and  _287
REMARK  118  A    between atoms: _287  and  _288
REMARK  119  A    between atoms: _287  and  _290
REMARK  120  A    between atoms: _290  and  _291
REMARK  121  A    between atoms: _291  and  _292
REMARK  122  A    between atoms: _294  and  _296
REMARK  123  A    between atoms: _296  and  _297
REMARK  124  A    between atoms: _296  and  _299
REMARK  125  A    between atoms: _299  and  _300
REMARK  126  A    between atoms: _300  and  _301
REMARK  127  A    between atoms: _301  and  _302
REMARK  128  A    between atoms: _302  and  _303
REMARK  129  A    between atoms: _307  and  _309
REMARK  130  A    between atoms: _309  and  _310
REMARK  131  A    between atoms: _309  and  _312
REMARK  132  A    between atoms: _312  and  _313
REMARK  133  A    between atoms: _319  and  _321
REMARK  134  A    between atoms: _321  and  _322
REMARK  135  A    between atoms: _321  and  _324
REMARK  136  A    between atoms: _327  and  _329
REMARK  137  A    between atoms: _329  and  _330
REMARK  138  A    between atoms: _329  and  _332
REMARK  139  A    between atoms: _332  and  _333
REMARK  140  A    between atoms: _336  and  _338
REMARK  141  A    between atoms: _338  and  _339
REMARK  142  A    between atoms: _338  and  _341
REMARK  143  A    between atoms: _341  and  _342
REMARK  144  A    between atoms: _344  and  _346
REMARK  145  A    between atoms: _346  and  _347
REMARK  146  A    between atoms: _346  and  _349
REMARK  147  A    between atoms: _349  and  _350
REMARK  148  A    between atoms: _353  and  _355
REMARK  149  A    between atoms: _355  and  _356
REMARK  150  A    between atoms: _358  and  _360
REMARK  151  A    between atoms: _360  and  _361
REMARK  152  A    between atoms: _360  and  _363
REMARK  153  A    between atoms: _363  and  _364
REMARK  154  A    between atoms: _367  and  _369
REMARK  155  A    between atoms: _369  and  _370
REMARK  156  A    between atoms: _369  and  _372
REMARK  157  A    between atoms: _375  and  _376
REMARK  158  A    between atoms: _381  and  _383
REMARK  159  A    between atoms: _383  and  _384
REMARK  160  A    between atoms: _383  and  _386
REMARK  161  A    between atoms: _386  and  _387
REMARK  162  A    between atoms: _390  and  _392
REMARK  163  A    between atoms: _392  and  _393
REMARK  164  A    between atoms: _392  and  _395
REMARK  165  A    between atoms: _398  and  _400
REMARK  166  A    between atoms: _400  and  _401
REMARK  167  A    between atoms: _400  and  _403
REMARK  168  A    between atoms: _406  and  _408
REMARK  169  A    between atoms: _408  and  _409
REMARK  170  A    between atoms: _408  and  _411
REMARK  171  A    between atoms: _411  and  _412
REMARK  172  A    between atoms: _416  and  _417
REMARK  173  A    between atoms: _422  and  _424
REMARK  174  A    between atoms: _424  and  _425
REMARK  175  A    between atoms: _424  and  _427
REMARK  176  A    between atoms: _427  and  _428
REMARK  177  A    between atoms: _433  and  _434
REMARK  178  A    between atoms: _436  and  _438
REMARK  179  A    between atoms: _438  and  _439
REMARK  180  A    between atoms: _438  and  _441
REMARK  181  A    between atoms: _441  and  _442
REMARK  182  A    between atoms: _442  and  _443
REMARK  183  A    between atoms: _445  and  _447
REMARK  184  A    between atoms: _447  and  _448
REMARK  185  A    between atoms: _447  and  _450
REMARK  186  A    between atoms: _450  and  _451
REMARK  187  A    between atoms: _451  and  _452
REMARK  188  A    between atoms: _452  and  _453
REMARK  189  A    between atoms: _453  and  _454
REMARK  190  A    between atoms: _458  and  _460
REMARK  191  A    between atoms: _460  and  _461
REMARK  192  A    between atoms: _460  and  _463
REMARK  193  A    between atoms: _463  and  _464
REMARK  194  A    between atoms: _469  and  _471
REMARK  195  A    between atoms: _471  and  _472
REMARK  196  A    between atoms: _474  and  _476
REMARK  197  A    between atoms: _476  and  _477
REMARK  198  A    between atoms: _476  and  _479
REMARK  199  A    between atoms: _479  and  _480
REMARK  200  A    between atoms: _483  and  _485
REMARK  201  A    between atoms: _485  and  _486
REMARK  202  A    between atoms: _485  and  _488
REMARK  203  A    between atoms: _488  and  _489
REMARK  204  A    between atoms: _494  and  _496
REMARK  205  A    between atoms: _496  and  _497
REMARK  206  A    between atoms: _496  and  _499
REMARK  207  A    between atoms: _499  and  _500
REMARK  208  A    between atoms: _503  and  _505
REMARK  209  A    between atoms: _505  and  _506
REMARK  210  A    between atoms: _505  and  _508
REMARK  211  A    between atoms: _508  and  _509
REMARK  212  A    between atoms: _515  and  _517
REMARK  213  A    between atoms: _517  and  _518
REMARK  214  A    between atoms: _517  and  _520
REMARK  215  A    between atoms: _520  and  _521
REMARK  216  A    between atoms: _526  and  _528
REMARK  217  A    between atoms: _528  and  _529
REMARK  218  A    between atoms: _528  and  _531
REMARK  219  A    between atoms: _531  and  _532
REMARK  220  A    between atoms: _532  and  _533
REMARK  221  A    between atoms: _533  and  _534
REMARK  222  A    between atoms: _543  and  _545
REMARK  223  A    between atoms: _545  and  _546
REMARK  224  A    between atoms: _545  and  _548
REMARK  225  A    between atoms: _548  and  _549
REMARK  226  A    between atoms: _554  and  _556
REMARK  227  A    between atoms: _556  and  _557
REMARK  228  A    between atoms: _556  and  _559
REMARK  229  A    between atoms: _561  and  _563
REMARK  230  A    between atoms: _563  and  _564
REMARK  231  A    between atoms: _563  and  _566
REMARK  232  A    between atoms: _566  and  _567
REMARK  233  A    between atoms: _567  and  _568
REMARK  234  A    between atoms: _570  and  _572
REMARK  235  A    between atoms: _572  and  _573
REMARK  236  A    between atoms: _572  and  _575
REMARK  237  A    between atoms: _575  and  _576
REMARK  238  A    between atoms: _579  and  _581
REMARK  239  A    between atoms: _581  and  _582
REMARK  240  A    between atoms: _581  and  _584
REMARK  241  A    between atoms: _584  and  _585
REMARK  242  A    between atoms: _585  and  _586
REMARK  243  A    between atoms: _586  and  _587
REMARK  244  A    between atoms: _587  and  _588
REMARK  245  A    between atoms: _592  and  _594
REMARK  246  A    between atoms: _594  and  _595
REMARK  247  A    between atoms: _594  and  _597
REMARK  248  A    between atoms: _600  and  _602
REMARK  249  A    between atoms: _602  and  _603
REMARK  250  A    between atoms: _606  and  _608
REMARK  251  A    between atoms: _608  and  _609
REMARK  252  A    between atoms: _608  and  _611
REMARK  253  A    between atoms: _611  and  _612
REMARK  254  A    between atoms: _615  and  _617
REMARK  255  A    between atoms: _617  and  _618
REMARK  256  A    between atoms: _617  and  _620
REMARK  257  A    between atoms: _620  and  _621
REMARK  258  A    between atoms: _627  and  _629
REMARK  259  A    between atoms: _629  and  _630
REMARK                            x       y       z     vdW  Elec       q    Type
REMARK                         _______ _______ _______ _____ _____    ______ ____
ROOT
ATOM      1  O   HOH     1      17.085  10.425 -19.408  0.00  0.00    +0.000 OA
ENDROOT
TORSDOF 0
REMARK  Name = ../refined-set-2016/3u6h/3u6h_pocket.pdb
REMARK  259 active torsions:
REMARK  status: ('A' for Active; 'I' for Inactive)
REMARK    1  A    between atoms: _1  and  _3
REMARK    2  A    between atoms: _3  and  _4
REMARK    3  A    between atoms: _3  and  _6
REMARK    4  A    between atoms: _9  and  _11
REMARK    5  A    between atoms: _11  and  _12
REMARK    6  A    between atoms: _11  and  _14
REMARK    7  A    between atoms: _17  and  _19
REMARK    8  A    between atoms: _19  and  _20
REMARK    9  A    between atoms: _19  and  _22
REMARK   10  A    between atoms: _22  and  _23
REMARK   11  A    between atoms: _26  and  _28
REMARK   12  A    between atoms: _28  and  _29
REMARK   13  A    between atoms: _31  and  _33
REMARK   14  A    between atoms: _33  and  _34
REMARK   15  A    between atoms: _33  and  _36
REMARK   16  A    between atoms: _36  and  _37
REMARK   17  A    between atoms: _37  and  _38
REMARK   18  A    between atoms: _38  and  _39
REMARK   19  A    between atoms: _48  and  _50
REMARK   20  A    between atoms: _50  and  _51
REMARK   21  A    between atoms: _53  and  _55
REMARK   22  A    between atoms: _55  and  _56
REMARK   23  A    between atoms: _55  and  _58
REMARK   24  A    between atoms: _58  and  _59
REMARK   25  A    between atoms: _64  and  _66
REMARK   26  A    between atoms: _66  and  _67
REMARK   27  A    between atoms: _66  and  _69
REMARK   28  A    between atoms: _69  and  _70
REMARK   29  A    between atoms: _76  and  _78
REMARK   30  A    between atoms: _78  and  _79
REMARK   31  A    between atoms: _81  and  _83
REMARK   32  A    between atoms: _83  and  _84
REMARK   33  A    between atoms: _83  and  _86
REMARK   34  A    between atoms: _88  and  _90
REMARK   35  A    between atoms: _90  and  _91
REMARK   36  A    between atoms: _90  and  _93
REMARK   37  A    between atoms: _96  and  _98
REMARK   38  A    between atoms: _98  and  _99
REMARK   39  A    between atoms: _98  and  _101
REMARK   40  A    between atoms: _101  and  _102
REMARK   41  A    between atoms: _107  and  _108
REMARK   42  A    between atoms: _110  and  _112
REMARK   43  A    between atoms: _112  and  _113
REMARK   44  A    between atoms: _112  and  _115
REMARK   45  A    between atoms: _115  and  _116
REMARK   46  A    between atoms: _121  and  _123
REMARK   47  A    between atoms: _123  and  _124
REMARK   48  A    between atoms: _123  and  _126
REMARK   49  A    between atoms: _126  and  _127
REMARK   50  A    between atoms: _132  and  _134
REMARK   51  A    between atoms: _134  and  _135
REMARK   52  A    between atoms: _134  and  _137
REMARK   53  A    between atoms: _139  and  _141
REMARK   54  A    between atoms: _141  and  _142
REMARK   55  A    between atoms: _145  and  _147
REMARK   56  A    between atoms: _147  and  _148
REMARK   57  A    between atoms: _147  and  _150
REMARK   58  A    between atoms: _153  and  _155
REMARK   59  A    between atoms: _155  and  _156
REMARK   60  A    between atoms: _155  and  _158
REMARK   61  A    between atoms: _158  and  _159
REMARK   62  A    between atoms: _159  and  _160
REMARK   63  A    between atoms: _160  and  _161
REMARK   64  A    between atoms: _161  and  _162
REMARK   65  A    between atoms: _166  and  _168
REMARK   66  A    between atoms: _168  and  _169
REMARK   67  A    between atoms: _168  and  _171
REMARK   68  A    between atoms: _171  and  _172
REMARK   69  A    between atoms: _174  and  _176
REMARK   70  A    between atoms: _176  and  _177
REMARK   71  A    between atoms: _176  and  _179
REMARK   72  A    between atoms: _179  and  _180
REMARK   73  A    between atoms: _183  and  _185
REMARK   74  A    between atoms: _185  and  _186
REMARK   75  A    between atoms: _185  and  _188
REMARK   76  A    between atoms: _188  and  _189
REMARK   77  A    between atoms: _192  and  _194
REMARK   78  A    between atoms: _194  and  _195
REMARK   79  A    between atoms: _194  and  _197
REMARK   80  A    between atoms: _197  and  _198
REMARK   81  A    between atoms: _198  and  _199
REMARK   82  A    between atoms: _202  and  _204
REMARK   83  A    between atoms: _204  and  _205
REMARK   84  A    between atoms: _204  and  _207
REMARK   85  A    between atoms: _210  and  _212
REMARK   86  A    between atoms: _212  and  _213
REMARK   87  A    between atoms: _212  and  _215
REMARK   88  A    between atoms: _215  and  _216
REMARK   89  A    between atoms: _216  and  _217
REMARK   90  A    between atoms: _222  and  _224
REMARK   91  A    between atoms: _224  and  _225
REMARK   92  A    between atoms: _224  and  _227
REMARK   93  A    between atoms: _227  and  _228
REMARK   94  A    between atoms: _234  and  _236
REMARK   95  A    between atoms: _236  and  _237
REMARK   96  A    between atoms: _236  and  _239
REMARK   97  A    between atoms: _239  and  _240
REMARK   98  A    between atoms: _243  and  _245
REMARK   99  A    between atoms: _245  and  _246
REMARK  100  A    between atoms: _245  and  _248
REMARK  101  A    between atoms: _248  and  _249
REMARK  102  A    between atoms: _252  and  _254
REMARK  103  A    between atoms: _254  and  _255
REMARK  104  A    between atoms: _254  and  _257
REMARK  105  A    between atoms: _257  and  _258
REMARK  106  A    between atoms: _258  and  _259
REMARK  107  A    between atoms: _262  and  _264
REMARK  108  A    between atoms: _264  and  _265
REMARK  109  A    between atoms: _267  and  _269
REMARK  110  A    between atoms: _269  and  _270
REMARK  111  A    between atoms: _269  and  _272
REMARK  112  A    between atoms: _272  and  _273
REMARK  113  A    between atoms: _276  and  _278
REMARK  114  A    between atoms: _278  and  _279
REMARK  115  A    between atoms: _278  and  _281
REMARK  116  A    between atoms: _281  and  _282
REMARK  117  A    between atoms: _285  and  _287
REMARK  118  A    between atoms: _287  and  _288
REMARK  119  A    between atoms: _287  and  _290
REMARK  120  A    between atoms: _290  and  _291
REMARK  121  A    between atoms: _291  and  _292
REMARK  122  A    between atoms: _294  and  _296
REMARK  123  A    between atoms: _296  and  _297
REMARK  124  A    between atoms: _296  and  _299
REMARK  125  A    between atoms: _299  and  _300
REMARK  126  A    between atoms: _300  and  _301
REMARK  127  A    between atoms: _301  and  _302
REMARK  128  A    between atoms: _302  and  _303
REMARK  129  A    between atoms: _307  and  _309
REMARK  130  A    between atoms: _309  and  _310
REMARK  131  A    between atoms: _309  and  _312
REMARK  132  A    between atoms: _312  and  _313
REMARK  133  A    between atoms: _319  and  _321
REMARK  134  A    between atoms: _321  and  _322
REMARK  135  A    between atoms: _321  and  _324
REMARK  136  A    between atoms: _327  and  _329
REMARK  137  A    between atoms: _329  and  _330
REMARK  138  A    between atoms: _329  and  _332
REMARK  139  A    between atoms: _332  and  _333
REMARK  140  A    between atoms: _336  and  _338
REMARK  141  A    between atoms: _338  and  _339
REMARK  142  A    between atoms: _338  and  _341
REMARK  143  A    between atoms: _341  and  _342
REMARK  144  A    between atoms: _344  and  _346
REMARK  145  A    between atoms: _346  and  _347
REMARK  146  A    between atoms: _346  and  _349
REMARK  147  A    between atoms: _349  and  _350
REMARK  148  A    between atoms: _353  and  _355
REMARK  149  A    between atoms: _355  and  _356
REMARK  150  A    between atoms: _358  and  _360
REMARK  151  A    between atoms: _360  and  _361
REMARK  152  A    between atoms: _360  and  _363
REMARK  153  A    between atoms: _363  and  _364
REMARK  154  A    between atoms: _367  and  _369
REMARK  155  A    between atoms: _369  and  _370
REMARK  156  A    between atoms: _369  and  _372
REMARK  157  A    between atoms: _375  and  _376
REMARK  158  A    between atoms: _381  and  _383
REMARK  159  A    between atoms: _383  and  _384
REMARK  160  A    between atoms: _383  and  _386
REMARK  161  A    between atoms: _386  and  _387
REMARK  162  A    between atoms: _390  and  _392
REMARK  163  A    between atoms: _392  and  _393
REMARK  164  A    between atoms: _392  and  _395
REMARK  165  A    between atoms: _398  and  _400
REMARK  166  A    between atoms: _400  and  _401
REMARK  167  A    between atoms: _400  and  _403
REMARK  168  A    between atoms: _406  and  _408
REMARK  169  A    between atoms: _408  and  _409
REMARK  170  A    between atoms: _408  and  _411
REMARK  171  A    between atoms: _411  and  _412
REMARK  172  A    between atoms: _416  and  _417
REMARK  173  A    between atoms: _422  and  _424
REMARK  174  A    between atoms: _424  and  _425
REMARK  175  A    between atoms: _424  and  _427
REMARK  176  A    between atoms: _427  and  _428
REMARK  177  A    between atoms: _433  and  _434
REMARK  178  A    between atoms: _436  and  _438
REMARK  179  A    between atoms: _438  and  _439
REMARK  180  A    between atoms: _438  and  _441
REMARK  181  A    between atoms: _441  and  _442
REMARK  182  A    between atoms: _442  and  _443
REMARK  183  A    between atoms: _445  and  _447
REMARK  184  A    between atoms: _447  and  _448
REMARK  185  A    between atoms: _447  and  _450
REMARK  186  A    between atoms: _450  and  _451
REMARK  187  A    between atoms: _451  and  _452
REMARK  188  A    between atoms: _452  and  _453
REMARK  189  A    between atoms: _453  and  _454
REMARK  190  A    between atoms: _458  and  _460
REMARK  191  A    between atoms: _460  and  _461
REMARK  192  A    between atoms: _460  and  _463
REMARK  193  A    between atoms: _463  and  _464
REMARK  194  A    between atoms: _469  and  _471
REMARK  195  A    between atoms: _471  and  _472
REMARK  196  A    between atoms: _474  and  _476
REMARK  197  A    between atoms: _476  and  _477
REMARK  198  A    between atoms: _476  and  _479
REMARK  199  A    between atoms: _479  and  _480
REMARK  200  A    between atoms: _483  and  _485
REMARK  201  A    between atoms: _485  and  _486
REMARK  202  A    between atoms: _485  and  _488
REMARK  203  A    between atoms: _488  and  _489
REMARK  204  A    between atoms: _494  and  _496
REMARK  205  A    between atoms: _496  and  _497
REMARK  206  A    between atoms: _496  and  _499
REMARK  207  A    between atoms: _499  and  _500
REMARK  208  A    between atoms: _503  and  _505
REMARK  209  A    between atoms: _505  and  _506
REMARK  210  A    between atoms: _505  and  _508
REMARK  211  A    between atoms: _508  and  _509
REMARK  212  A    between atoms: _515  and  _517
REMARK  213  A    between atoms: _517  and  _518
REMARK  214  A    between atoms: _517  and  _520
REMARK  215  A    between atoms: _520  and  _521
REMARK  216  A    between atoms: _526  and  _528
REMARK  217  A    between atoms: _528  and  _529
REMARK  218  A    between atoms: _528  and  _531
REMARK  219  A    between atoms: _531  and  _532
REMARK  220  A    between atoms: _532  and  _533
REMARK  221  A    between atoms: _533  and  _534
REMARK  222  A    between atoms: _543  and  _545
REMARK  223  A    between atoms: _545  and  _546
REMARK  224  A    between atoms: _545  and  _548
REMARK  225  A    between atoms: _548  and  _549
REMARK  226  A    between atoms: _554  and  _556
REMARK  227  A    between atoms: _556  and  _557
REMARK  228  A    between atoms: _556  and  _559
REMARK  229  A    between atoms: _561  and  _563
REMARK  230  A    between atoms: _563  and  _564
REMARK  231  A    between atoms: _563  and  _566
REMARK  232  A    between atoms: _566  and  _567
REMARK  233  A    between atoms: _567  and  _568
REMARK  234  A    between atoms: _570  and  _572
REMARK  235  A    between atoms: _572  and  _573
REMARK  236  A    between atoms: _572  and  _575
REMARK  237  A    between atoms: _575  and  _576
REMARK  238  A    between atoms: _579  and  _581
REMARK  239  A    between atoms: _581  and  _582
REMARK  240  A    between atoms: _581  and  _584
REMARK  241  A    between atoms: _584  and  _585
REMARK  242  A    between atoms: _585  and  _586
REMARK  243  A    between atoms: _586  and  _587
REMARK  244  A    between atoms: _587  and  _588
REMARK  245  A    between atoms: _592  and  _594
REMARK  246  A    between atoms: _594  and  _595
REMARK  247  A    between atoms: _594  and  _597
REMARK  248  A    between atoms: _600  and  _602
REMARK  249  A    between atoms: _602  and  _603
REMARK  250  A    between atoms: _606  and  _608
REMARK  251  A    between atoms: _608  and  _609
REMARK  252  A    between atoms: _608  and  _611
REMARK  253  A    between atoms: _611  and  _612
REMARK  254  A    between atoms: _615  and  _617
REMARK  255  A    between atoms: _617  and  _618
REMARK  256  A    between atoms: _617  and  _620
REMARK  257  A    between atoms: _620  and  _621
REMARK  258  A    between atoms: _627  and  _629
REMARK  259  A    between atoms: _629  and  _630
REMARK                            x       y       z     vdW  Elec       q    Type
REMARK                         _______ _______ _______ _____ _____    ______ ____
ROOT
ATOM      1  O   HOH     1      17.960  -2.771 -10.526  0.00  0.00    +0.000 OA
ENDROOT
TORSDOF 0
REMARK  Name = ../refined-set-2016/3u6h/3u6h_pocket.pdb
REMARK  259 active torsions:
REMARK  status: ('A' for Active; 'I' for Inactive)
REMARK    1  A    between atoms: _1  and  _3
REMARK    2  A    between atoms: _3  and  _4
REMARK    3  A    between atoms: _3  and  _6
REMARK    4  A    between atoms: _9  and  _11
REMARK    5  A    between atoms: _11  and  _12
REMARK    6  A    between atoms: _11  and  _14
REMARK    7  A    between atoms: _17  and  _19
REMARK    8  A    between atoms: _19  and  _20
REMARK    9  A    between atoms: _19  and  _22
REMARK   10  A    between atoms: _22  and  _23
REMARK   11  A    between atoms: _26  and  _28
REMARK   12  A    between atoms: _28  and  _29
REMARK   13  A    between atoms: _31  and  _33
REMARK   14  A    between atoms: _33  and  _34
REMARK   15  A    between atoms: _33  and  _36
REMARK   16  A    between atoms: _36  and  _37
REMARK   17  A    between atoms: _37  and  _38
REMARK   18  A    between atoms: _38  and  _39
REMARK   19  A    between atoms: _48  and  _50
REMARK   20  A    between atoms: _50  and  _51
REMARK   21  A    between atoms: _53  and  _55
REMARK   22  A    between atoms: _55  and  _56
REMARK   23  A    between atoms: _55  and  _58
REMARK   24  A    between atoms: _58  and  _59
REMARK   25  A    between atoms: _64  and  _66
REMARK   26  A    between atoms: _66  and  _67
REMARK   27  A    between atoms: _66  and  _69
REMARK   28  A    between atoms: _69  and  _70
REMARK   29  A    between atoms: _76  and  _78
REMARK   30  A    between atoms: _78  and  _79
REMARK   31  A    between atoms: _81  and  _83
REMARK   32  A    between atoms: _83  and  _84
REMARK   33  A    between atoms: _83  and  _86
REMARK   34  A    between atoms: _88  and  _90
REMARK   35  A    between atoms: _90  and  _91
REMARK   36  A    between atoms: _90  and  _93
REMARK   37  A    between atoms: _96  and  _98
REMARK   38  A    between atoms: _98  and  _99
REMARK   39  A    between atoms: _98  and  _101
REMARK   40  A    between atoms: _101  and  _102
REMARK   41  A    between atoms: _107  and  _108
REMARK   42  A    between atoms: _110  and  _112
REMARK   43  A    between atoms: _112  and  _113
REMARK   44  A    between atoms: _112  and  _115
REMARK   45  A    between atoms: _115  and  _116
REMARK   46  A    between atoms: _121  and  _123
REMARK   47  A    between atoms: _123  and  _124
REMARK   48  A    between atoms: _123  and  _126
REMARK   49  A    between atoms: _126  and  _127
REMARK   50  A    between atoms: _132  and  _134
REMARK   51  A    between atoms: _134  and  _135
REMARK   52  A    between atoms: _134  and  _137
REMARK   53  A    between atoms: _139  and  _141
REMARK   54  A    between atoms: _141  and  _142
REMARK   55  A    between atoms: _145  and  _147
REMARK   56  A    between atoms: _147  and  _148
REMARK   57  A    between atoms: _147  and  _150
REMARK   58  A    between atoms: _153  and  _155
REMARK   59  A    between atoms: _155  and  _156
REMARK   60  A    between atoms: _155  and  _158
REMARK   61  A    between atoms: _158  and  _159
REMARK   62  A    between atoms: _159  and  _160
REMARK   63  A    between atoms: _160  and  _161
REMARK   64  A    between atoms: _161  and  _162
REMARK   65  A    between atoms: _166  and  _168
REMARK   66  A    between atoms: _168  and  _169
REMARK   67  A    between atoms: _168  and  _171
REMARK   68  A    between atoms: _171  and  _172
REMARK   69  A    between atoms: _174  and  _176
REMARK   70  A    between atoms: _176  and  _177
REMARK   71  A    between atoms: _176  and  _179
REMARK   72  A    between atoms: _179  and  _180
REMARK   73  A    between atoms: _183  and  _185
REMARK   74  A    between atoms: _185  and  _186
REMARK   75  A    between atoms: _185  and  _188
REMARK   76  A    between atoms: _188  and  _189
REMARK   77  A    between atoms: _192  and  _194
REMARK   78  A    between atoms: _194  and  _195
REMARK   79  A    between atoms: _194  and  _197
REMARK   80  A    between atoms: _197  and  _198
REMARK   81  A    between atoms: _198  and  _199
REMARK   82  A    between atoms: _202  and  _204
REMARK   83  A    between atoms: _204  and  _205
REMARK   84  A    between atoms: _204  and  _207
REMARK   85  A    between atoms: _210  and  _212
REMARK   86  A    between atoms: _212  and  _213
REMARK   87  A    between atoms: _212  and  _215
REMARK   88  A    between atoms: _215  and  _216
REMARK   89  A    between atoms: _216  and  _217
REMARK   90  A    between atoms: _222  and  _224
REMARK   91  A    between atoms: _224  and  _225
REMARK   92  A    between atoms: _224  and  _227
REMARK   93  A    between atoms: _227  and  _228
REMARK   94  A    between atoms: _234  and  _236
REMARK   95  A    between atoms: _236  and  _237
REMARK   96  A    between atoms: _236  and  _239
REMARK   97  A    between atoms: _239  and  _240
REMARK   98  A    between atoms: _243  and  _245
REMARK   99  A    between atoms: _245  and  _246
REMARK  100  A    between atoms: _245  and  _248
REMARK  101  A    between atoms: _248  and  _249
REMARK  102  A    between atoms: _252  and  _254
REMARK  103  A    between atoms: _254  and  _255
REMARK  104  A    between atoms: _254  and  _257
REMARK  105  A    between atoms: _257  and  _258
REMARK  106  A    between atoms: _258  and  _259
REMARK  107  A    between atoms: _262  and  _264
REMARK  108  A    between atoms: _264  and  _265
REMARK  109  A    between atoms: _267  and  _269
REMARK  110  A    between atoms: _269  and  _270
REMARK  111  A    between atoms: _269  and  _272
REMARK  112  A    between atoms: _272  and  _273
REMARK  113  A    between atoms: _276  and  _278
REMARK  114  A    between atoms: _278  and  _279
REMARK  115  A    between atoms: _278  and  _281
REMARK  116  A    between atoms: _281  and  _282
REMARK  117  A    between atoms: _285  and  _287
REMARK  118  A    between atoms: _287  and  _288
REMARK  119  A    between atoms: _287  and  _290
REMARK  120  A    between atoms: _290  and  _291
REMARK  121  A    between atoms: _291  and  _292
REMARK  122  A    between atoms: _294  and  _296
REMARK  123  A    between atoms: _296  and  _297
REMARK  124  A    between atoms: _296  and  _299
REMARK  125  A    between atoms: _299  and  _300
REMARK  126  A    between atoms: _300  and  _301
REMARK  127  A    between atoms: _301  and  _302
REMARK  128  A    between atoms: _302  and  _303
REMARK  129  A    between atoms: _307  and  _309
REMARK  130  A    between atoms: _309  and  _310
REMARK  131  A    between atoms: _309  and  _312
REMARK  132  A    between atoms: _312  and  _313
REMARK  133  A    between atoms: _319  and  _321
REMARK  134  A    between atoms: _321  and  _322
REMARK  135  A    between atoms: _321  and  _324
REMARK  136  A    between atoms: _327  and  _329
REMARK  137  A    between atoms: _329  and  _330
REMARK  138  A    between atoms: _329  and  _332
REMARK  139  A    between atoms: _332  and  _333
REMARK  140  A    between atoms: _336  and  _338
REMARK  141  A    between atoms: _338  and  _339
REMARK  142  A    between atoms: _338  and  _341
REMARK  143  A    between atoms: _341  and  _342
REMARK  144  A    between atoms: _344  and  _346
REMARK  145  A    between atoms: _346  and  _347
REMARK  146  A    between atoms: _346  and  _349
REMARK  147  A    between atoms: _349  and  _350
REMARK  148  A    between atoms: _353  and  _355
REMARK  149  A    between atoms: _355  and  _356
REMARK  150  A    between atoms: _358  and  _360
REMARK  151  A    between atoms: _360  and  _361
REMARK  152  A    between atoms: _360  and  _363
REMARK  153  A    between atoms: _363  and  _364
REMARK  154  A    between atoms: _367  and  _369
REMARK  155  A    between atoms: _369  and  _370
REMARK  156  A    between atoms: _369  and  _372
REMARK  157  A    between atoms: _375  and  _376
REMARK  158  A    between atoms: _381  and  _383
REMARK  159  A    between atoms: _383  and  _384
REMARK  160  A    between atoms: _383  and  _386
REMARK  161  A    between atoms: _386  and  _387
REMARK  162  A    between atoms: _390  and  _392
REMARK  163  A    between atoms: _392  and  _393
REMARK  164  A    between atoms: _392  and  _395
REMARK  165  A    between atoms: _398  and  _400
REMARK  166  A    between atoms: _400  and  _401
REMARK  167  A    between atoms: _400  and  _403
REMARK  168  A    between atoms: _406  and  _408
REMARK  169  A    between atoms: _408  and  _409
REMARK  170  A    between atoms: _408  and  _411
REMARK  171  A    between atoms: _411  and  _412
REMARK  172  A    between atoms: _416  and  _417
REMARK  173  A    between atoms: _422  and  _424
REMARK  174  A    between atoms: _424  and  _425
REMARK  175  A    between atoms: _424  and  _427
REMARK  176  A    between atoms: _427  and  _428
REMARK  177  A    between atoms: _433  and  _434
REMARK  178  A    between atoms: _436  and  _438
REMARK  179  A    between atoms: _438  and  _439
REMARK  180  A    between atoms: _438  and  _441
REMARK  181  A    between atoms: _441  and  _442
REMARK  182  A    between atoms: _442  and  _443
REMARK  183  A    between atoms: _445  and  _447
REMARK  184  A    between atoms: _447  and  _448
REMARK  185  A    between atoms: _447  and  _450
REMARK  186  A    between atoms: _450  and  _451
REMARK  187  A    between atoms: _451  and  _452
REMARK  188  A    between atoms: _452  and  _453
REMARK  189  A    between atoms: _453  and  _454
REMARK  190  A    between atoms: _458  and  _460
REMARK  191  A    between atoms: _460  and  _461
REMARK  192  A    between atoms: _460  and  _463
REMARK  193  A    between atoms: _463  and  _464
REMARK  194  A    between atoms: _469  and  _471
REMARK  195  A    between atoms: _471  and  _472
REMARK  196  A    between atoms: _474  and  _476
REMARK  197  A    between atoms: _476  and  _477
REMARK  198  A    between atoms: _476  and  _479
REMARK  199  A    between atoms: _479  and  _480
REMARK  200  A    between atoms: _483  and  _485
REMARK  201  A    between atoms: _485  and  _486
REMARK  202  A    between atoms: _485  and  _488
REMARK  203  A    between atoms: _488  and  _489
REMARK  204  A    between atoms: _494  and  _496
REMARK  205  A    between atoms: _496  and  _497
REMARK  206  A    between atoms: _496  and  _499
REMARK  207  A    between atoms: _499  and  _500
REMARK  208  A    between atoms: _503  and  _505
REMARK  209  A    between atoms: _505  and  _506
REMARK  210  A    between atoms: _505  and  _508
REMARK  211  A    between atoms: _508  and  _509
REMARK  212  A    between atoms: _515  and  _517
REMARK  213  A    between atoms: _517  and  _518
REMARK  214  A    between atoms: _517  and  _520
REMARK  215  A    between atoms: _520  and  _521
REMARK  216  A    between atoms: _526  and  _528
REMARK  217  A    between atoms: _528  and  _529
REMARK  218  A    between atoms: _528  and  _531
REMARK  219  A    between atoms: _531  and  _532
REMARK  220  A    between atoms: _532  and  _533
REMARK  221  A    between atoms: _533  and  _534
REMARK  222  A    between atoms: _543  and  _545
REMARK  223  A    between atoms: _545  and  _546
REMARK  224  A    between atoms: _545  and  _548
REMARK  225  A    between atoms: _548  and  _549
REMARK  226  A    between atoms: _554  and  _556
REMARK  227  A    between atoms: _556  and  _557
REMARK  228  A    between atoms: _556  and  _559
REMARK  229  A    between atoms: _561  and  _563
REMARK  230  A    between atoms: _563  and  _564
REMARK  231  A    between atoms: _563  and  _566
REMARK  232  A    between atoms: _566  and  _567
REMARK  233  A    between atoms: _567  and  _568
REMARK  234  A    between atoms: _570  and  _572
REMARK  235  A    between atoms: _572  and  _573
REMARK  236  A    between atoms: _572  and  _575
REMARK  237  A    between atoms: _575  and  _576
REMARK  238  A    between atoms: _579  and  _581
REMARK  239  A    between atoms: _581  and  _582
REMARK  240  A    between atoms: _581  and  _584
REMARK  241  A    between atoms: _584  and  _585
REMARK  242  A    between atoms: _585  and  _586
REMARK  243  A    between atoms: _586  and  _587
REMARK  244  A    between atoms: _587  and  _588
REMARK  245  A    between atoms: _592  and  _594
REMARK  246  A    between atoms: _594  and  _595
REMARK  247  A    between atoms: _594  and  _597
REMARK  248  A    between atoms: _600  and  _602
REMARK  249  A    between atoms: _602  and  _603
REMARK  250  A    between atoms: _606  and  _608
REMARK  251  A    between atoms: _608  and  _609
REMARK  252  A    between atoms: _608  and  _611
REMARK  253  A    between atoms: _611  and  _612
REMARK  254  A    between atoms: _615  and  _617
REMARK  255  A    between atoms: _617  and  _618
REMARK  256  A    between atoms: _617  and  _620
REMARK  257  A    between atoms: _620  and  _621
REMARK  258  A    between atoms: _627  and  _629
REMARK  259  A    between atoms: _629  and  _630
REMARK                            x       y       z     vdW  Elec       q    Type
REMARK                         _______ _______ _______ _____ _____    ______ ____
ROOT
ATOM      1  O   HOH     1      29.691   3.588 -27.352  0.00  0.00    +0.000 OA
ENDROOT
TORSDOF 0
REMARK  Name = ../refined-set-2016/3u6h/3u6h_pocket.pdb
REMARK  259 active torsions:
REMARK  status: ('A' for Active; 'I' for Inactive)
REMARK    1  A    between atoms: _1  and  _3
REMARK    2  A    between atoms: _3  and  _4
REMARK    3  A    between atoms: _3  and  _6
REMARK    4  A    between atoms: _9  and  _11
REMARK    5  A    between atoms: _11  and  _12
REMARK    6  A    between atoms: _11  and  _14
REMARK    7  A    between atoms: _17  and  _19
REMARK    8  A    between atoms: _19  and  _20
REMARK    9  A    between atoms: _19  and  _22
REMARK   10  A    between atoms: _22  and  _23
REMARK   11  A    between atoms: _26  and  _28
REMARK   12  A    between atoms: _28  and  _29
REMARK   13  A    between atoms: _31  and  _33
REMARK   14  A    between atoms: _33  and  _34
REMARK   15  A    between atoms: _33  and  _36
REMARK   16  A    between atoms: _36  and  _37
REMARK   17  A    between atoms: _37  and  _38
REMARK   18  A    between atoms: _38  and  _39
REMARK   19  A    between atoms: _48  and  _50
REMARK   20  A    between atoms: _50  and  _51
REMARK   21  A    between atoms: _53  and  _55
REMARK   22  A    between atoms: _55  and  _56
REMARK   23  A    between atoms: _55  and  _58
REMARK   24  A    between atoms: _58  and  _59
REMARK   25  A    between atoms: _64  and  _66
REMARK   26  A    between atoms: _66  and  _67
REMARK   27  A    between atoms: _66  and  _69
REMARK   28  A    between atoms: _69  and  _70
REMARK   29  A    between atoms: _76  and  _78
REMARK   30  A    between atoms: _78  and  _79
REMARK   31  A    between atoms: _81  and  _83
REMARK   32  A    between atoms: _83  and  _84
REMARK   33  A    between atoms: _83  and  _86
REMARK   34  A    between atoms: _88  and  _90
REMARK   35  A    between atoms: _90  and  _91
REMARK   36  A    between atoms: _90  and  _93
REMARK   37  A    between atoms: _96  and  _98
REMARK   38  A    between atoms: _98  and  _99
REMARK   39  A    between atoms: _98  and  _101
REMARK   40  A    between atoms: _101  and  _102
REMARK   41  A    between atoms: _107  and  _108
REMARK   42  A    between atoms: _110  and  _112
REMARK   43  A    between atoms: _112  and  _113
REMARK   44  A    between atoms: _112  and  _115
REMARK   45  A    between atoms: _115  and  _116
REMARK   46  A    between atoms: _121  and  _123
REMARK   47  A    between atoms: _123  and  _124
REMARK   48  A    between atoms: _123  and  _126
REMARK   49  A    between atoms: _126  and  _127
REMARK   50  A    between atoms: _132  and  _134
REMARK   51  A    between atoms: _134  and  _135
REMARK   52  A    between atoms: _134  and  _137
REMARK   53  A    between atoms: _139  and  _141
REMARK   54  A    between atoms: _141  and  _142
REMARK   55  A    between atoms: _145  and  _147
REMARK   56  A    between atoms: _147  and  _148
REMARK   57  A    between atoms: _147  and  _150
REMARK   58  A    between atoms: _153  and  _155
REMARK   59  A    between atoms: _155  and  _156
REMARK   60  A    between atoms: _155  and  _158
REMARK   61  A    between atoms: _158  and  _159
REMARK   62  A    between atoms: _159  and  _160
REMARK   63  A    between atoms: _160  and  _161
REMARK   64  A    between atoms: _161  and  _162
REMARK   65  A    between atoms: _166  and  _168
REMARK   66  A    between atoms: _168  and  _169
REMARK   67  A    between atoms: _168  and  _171
REMARK   68  A    between atoms: _171  and  _172
REMARK   69  A    between atoms: _174  and  _176
REMARK   70  A    between atoms: _176  and  _177
REMARK   71  A    between atoms: _176  and  _179
REMARK   72  A    between atoms: _179  and  _180
REMARK   73  A    between atoms: _183  and  _185
REMARK   74  A    between atoms: _185  and  _186
REMARK   75  A    between atoms: _185  and  _188
REMARK   76  A    between atoms: _188  and  _189
REMARK   77  A    between atoms: _192  and  _194
REMARK   78  A    between atoms: _194  and  _195
REMARK   79  A    between atoms: _194  and  _197
REMARK   80  A    between atoms: _197  and  _198
REMARK   81  A    between atoms: _198  and  _199
REMARK   82  A    between atoms: _202  and  _204
REMARK   83  A    between atoms: _204  and  _205
REMARK   84  A    between atoms: _204  and  _207
REMARK   85  A    between atoms: _210  and  _212
REMARK   86  A    between atoms: _212  and  _213
REMARK   87  A    between atoms: _212  and  _215
REMARK   88  A    between atoms: _215  and  _216
REMARK   89  A    between atoms: _216  and  _217
REMARK   90  A    between atoms: _222  and  _224
REMARK   91  A    between atoms: _224  and  _225
REMARK   92  A    between atoms: _224  and  _227
REMARK   93  A    between atoms: _227  and  _228
REMARK   94  A    between atoms: _234  and  _236
REMARK   95  A    between atoms: _236  and  _237
REMARK   96  A    between atoms: _236  and  _239
REMARK   97  A    between atoms: _239  and  _240
REMARK   98  A    between atoms: _243  and  _245
REMARK   99  A    between atoms: _245  and  _246
REMARK  100  A    between atoms: _245  and  _248
REMARK  101  A    between atoms: _248  and  _249
REMARK  102  A    between atoms: _252  and  _254
REMARK  103  A    between atoms: _254  and  _255
REMARK  104  A    between atoms: _254  and  _257
REMARK  105  A    between atoms: _257  and  _258
REMARK  106  A    between atoms: _258  and  _259
REMARK  107  A    between atoms: _262  and  _264
REMARK  108  A    between atoms: _264  and  _265
REMARK  109  A    between atoms: _267  and  _269
REMARK  110  A    between atoms: _269  and  _270
REMARK  111  A    between atoms: _269  and  _272
REMARK  112  A    between atoms: _272  and  _273
REMARK  113  A    between atoms: _276  and  _278
REMARK  114  A    between atoms: _278  and  _279
REMARK  115  A    between atoms: _278  and  _281
REMARK  116  A    between atoms: _281  and  _282
REMARK  117  A    between atoms: _285  and  _287
REMARK  118  A    between atoms: _287  and  _288
REMARK  119  A    between atoms: _287  and  _290
REMARK  120  A    between atoms: _290  and  _291
REMARK  121  A    between atoms: _291  and  _292
REMARK  122  A    between atoms: _294  and  _296
REMARK  123  A    between atoms: _296  and  _297
REMARK  124  A    between atoms: _296  and  _299
REMARK  125  A    between atoms: _299  and  _300
REMARK  126  A    between atoms: _300  and  _301
REMARK  127  A    between atoms: _301  and  _302
REMARK  128  A    between atoms: _302  and  _303
REMARK  129  A    between atoms: _307  and  _309
REMARK  130  A    between atoms: _309  and  _310
REMARK  131  A    between atoms: _309  and  _312
REMARK  132  A    between atoms: _312  and  _313
REMARK  133  A    between atoms: _319  and  _321
REMARK  134  A    between atoms: _321  and  _322
REMARK  135  A    between atoms: _321  and  _324
REMARK  136  A    between atoms: _327  and  _329
REMARK  137  A    between atoms: _329  and  _330
REMARK  138  A    between atoms: _329  and  _332
REMARK  139  A    between atoms: _332  and  _333
REMARK  140  A    between atoms: _336  and  _338
REMARK  141  A    between atoms: _338  and  _339
REMARK  142  A    between atoms: _338  and  _341
REMARK  143  A    between atoms: _341  and  _342
REMARK  144  A    between atoms: _344  and  _346
REMARK  145  A    between atoms: _346  and  _347
REMARK  146  A    between atoms: _346  and  _349
REMARK  147  A    between atoms: _349  and  _350
REMARK  148  A    between atoms: _353  and  _355
REMARK  149  A    between atoms: _355  and  _356
REMARK  150  A    between atoms: _358  and  _360
REMARK  151  A    between atoms: _360  and  _361
REMARK  152  A    between atoms: _360  and  _363
REMARK  153  A    between atoms: _363  and  _364
REMARK  154  A    between atoms: _367  and  _369
REMARK  155  A    between atoms: _369  and  _370
REMARK  156  A    between atoms: _369  and  _372
REMARK  157  A    between atoms: _375  and  _376
REMARK  158  A    between atoms: _381  and  _383
REMARK  159  A    between atoms: _383  and  _384
REMARK  160  A    between atoms: _383  and  _386
REMARK  161  A    between atoms: _386  and  _387
REMARK  162  A    between atoms: _390  and  _392
REMARK  163  A    between atoms: _392  and  _393
REMARK  164  A    between atoms: _392  and  _395
REMARK  165  A    between atoms: _398  and  _400
REMARK  166  A    between atoms: _400  and  _401
REMARK  167  A    between atoms: _400  and  _403
REMARK  168  A    between atoms: _406  and  _408
REMARK  169  A    between atoms: _408  and  _409
REMARK  170  A    between atoms: _408  and  _411
REMARK  171  A    between atoms: _411  and  _412
REMARK  172  A    between atoms: _416  and  _417
REMARK  173  A    between atoms: _422  and  _424
REMARK  174  A    between atoms: _424  and  _425
REMARK  175  A    between atoms: _424  and  _427
REMARK  176  A    between atoms: _427  and  _428
REMARK  177  A    between atoms: _433  and  _434
REMARK  178  A    between atoms: _436  and  _438
REMARK  179  A    between atoms: _438  and  _439
REMARK  180  A    between atoms: _438  and  _441
REMARK  181  A    between atoms: _441  and  _442
REMARK  182  A    between atoms: _442  and  _443
REMARK  183  A    between atoms: _445  and  _447
REMARK  184  A    between atoms: _447  and  _448
REMARK  185  A    between atoms: _447  and  _450
REMARK  186  A    between atoms: _450  and  _451
REMARK  187  A    between atoms: _451  and  _452
REMARK  188  A    between atoms: _452  and  _453
REMARK  189  A    between atoms: _453  and  _454
REMARK  190  A    between atoms: _458  and  _460
REMARK  191  A    between atoms: _460  and  _461
REMARK  192  A    between atoms: _460  and  _463
REMARK  193  A    between atoms: _463  and  _464
REMARK  194  A    between atoms: _469  and  _471
REMARK  195  A    between atoms: _471  and  _472
REMARK  196  A    between atoms: _474  and  _476
REMARK  197  A    between atoms: _476  and  _477
REMARK  198  A    between atoms: _476  and  _479
REMARK  199  A    between atoms: _479  and  _480
REMARK  200  A    between atoms: _483  and  _485
REMARK  201  A    between atoms: _485  and  _486
REMARK  202  A    between atoms: _485  and  _488
REMARK  203  A    between atoms: _488  and  _489
REMARK  204  A    between atoms: _494  and  _496
REMARK  205  A    between atoms: _496  and  _497
REMARK  206  A    between atoms: _496  and  _499
REMARK  207  A    between atoms: _499  and  _500
REMARK  208  A    between atoms: _503  and  _505
REMARK  209  A    between atoms: _505  and  _506
REMARK  210  A    between atoms: _505  and  _508
REMARK  211  A    between atoms: _508  and  _509
REMARK  212  A    between atoms: _515  and  _517
REMARK  213  A    between atoms: _517  and  _518
REMARK  214  A    between atoms: _517  and  _520
REMARK  215  A    between atoms: _520  and  _521
REMARK  216  A    between atoms: _526  and  _528
REMARK  217  A    between atoms: _528  and  _529
REMARK  218  A    between atoms: _528  and  _531
REMARK  219  A    between atoms: _531  and  _532
REMARK  220  A    between atoms: _532  and  _533
REMARK  221  A    between atoms: _533  and  _534
REMARK  222  A    between atoms: _543  and  _545
REMARK  223  A    between atoms: _545  and  _546
REMARK  224  A    between atoms: _545  and  _548
REMARK  225  A    between atoms: _548  and  _549
REMARK  226  A    between atoms: _554  and  _556
REMARK  227  A    between atoms: _556  and  _557
REMARK  228  A    between atoms: _556  and  _559
REMARK  229  A    between atoms: _561  and  _563
REMARK  230  A    between atoms: _563  and  _564
REMARK  231  A    between atoms: _563  and  _566
REMARK  232  A    between atoms: _566  and  _567
REMARK  233  A    between atoms: _567  and  _568
REMARK  234  A    between atoms: _570  and  _572
REMARK  235  A    between atoms: _572  and  _573
REMARK  236  A    between atoms: _572  and  _575
REMARK  237  A    between atoms: _575  and  _576
REMARK  238  A    between atoms: _579  and  _581
REMARK  239  A    between atoms: _581  and  _582
REMARK  240  A    between atoms: _581  and  _584
REMARK  241  A    between atoms: _584  and  _585
REMARK  242  A    between atoms: _585  and  _586
REMARK  243  A    between atoms: _586  and  _587
REMARK  244  A    between atoms: _587  and  _588
REMARK  245  A    between atoms: _592  and  _594
REMARK  246  A    between atoms: _594  and  _595
REMARK  247  A    between atoms: _594  and  _597
REMARK  248  A    between atoms: _600  and  _602
REMARK  249  A    between atoms: _602  and  _603
REMARK  250  A    between atoms: _606  and  _608
REMARK  251  A    between atoms: _608  and  _609
REMARK  252  A    between atoms: _608  and  _611
REMARK  253  A    between atoms: _611  and  _612
REMARK  254  A    between atoms: _615  and  _617
REMARK  255  A    between atoms: _617  and  _618
REMARK  256  A    between atoms: _617  and  _620
REMARK  257  A    between atoms: _620  and  _621
REMARK  258  A    between atoms: _627  and  _629
REMARK  259  A    between atoms: _629  and  _630
REMARK                            x       y       z     vdW  Elec       q    Type
REMARK                         _______ _______ _______ _____ _____    ______ ____
ROOT
ATOM      1  O   HOH     1      19.782   4.516 -14.400  0.00  0.00    +0.000 OA
ENDROOT
TORSDOF 0
