REMARK  Name = ../refined-set-2016/2o0u/2o0u_pocket.pdb
REMARK  215 active torsions:
REMARK  status: ('A' for Active; 'I' for Inactive)
REMARK    1  A    between atoms: _1  and  _3
REMARK    2  A    between atoms: _3  and  _4
REMARK    3  A    between atoms: _3  and  _6
REMARK    4  A    between atoms: _6  and  _7
REMARK    5  A    between atoms: _7  and  _8
REMARK    6  A    between atoms: _8  and  _9
REMARK    7  A    between atoms: _9  and  _10
REMARK    8  A    between atoms: _15  and  _16
REMARK    9  A    between atoms: _21  and  _23
REMARK   10  A    between atoms: _23  and  _24
REMARK   11  A    between atoms: _23  and  _26
REMARK   12  A    between atoms: _26  and  _27
REMARK   13  A    between atoms: _30  and  _32
REMARK   14  A    between atoms: _32  and  _33
REMARK   15  A    between atoms: _35  and  _37
REMARK   16  A    between atoms: _37  and  _38
REMARK   17  A    between atoms: _37  and  _40
REMARK   18  A    between atoms: _40  and  _41
REMARK   19  A    between atoms: _43  and  _45
REMARK   20  A    between atoms: _45  and  _46
REMARK   21  A    between atoms: _48  and  _50
REMARK   22  A    between atoms: _50  and  _51
REMARK   23  A    between atoms: _50  and  _53
REMARK   24  A    between atoms: _53  and  _54
REMARK   25  A    between atoms: _54  and  _55
REMARK   26  A    between atoms: _60  and  _62
REMARK   27  A    between atoms: _62  and  _63
REMARK   28  A    between atoms: _65  and  _67
REMARK   29  A    between atoms: _67  and  _68
REMARK   30  A    between atoms: _67  and  _70
REMARK   31  A    between atoms: _70  and  _71
REMARK   32  A    between atoms: _74  and  _76
REMARK   33  A    between atoms: _76  and  _77
REMARK   34  A    between atoms: _76  and  _79
REMARK   35  A    between atoms: _82  and  _84
REMARK   36  A    between atoms: _84  and  _85
REMARK   37  A    between atoms: _84  and  _87
REMARK   38  A    between atoms: _89  and  _91
REMARK   39  A    between atoms: _91  and  _92
REMARK   40  A    between atoms: _95  and  _97
REMARK   41  A    between atoms: _97  and  _98
REMARK   42  A    between atoms: _101  and  _103
REMARK   43  A    between atoms: _103  and  _104
REMARK   44  A    between atoms: _103  and  _106
REMARK   45  A    between atoms: _106  and  _107
REMARK   46  A    between atoms: _112  and  _114
REMARK   47  A    between atoms: _114  and  _115
REMARK   48  A    between atoms: _114  and  _117
REMARK   49  A    between atoms: _120  and  _122
REMARK   50  A    between atoms: _122  and  _123
REMARK   51  A    between atoms: _126  and  _128
REMARK   52  A    between atoms: _128  and  _129
REMARK   53  A    between atoms: _128  and  _131
REMARK   54  A    between atoms: _131  and  _132
REMARK   55  A    between atoms: _135  and  _137
REMARK   56  A    between atoms: _137  and  _138
REMARK   57  A    between atoms: _137  and  _140
REMARK   58  A    between atoms: _140  and  _141
REMARK   59  A    between atoms: _141  and  _142
REMARK   60  A    between atoms: _142  and  _143
REMARK   61  A    between atoms: _143  and  _144
REMARK   62  A    between atoms: _148  and  _150
REMARK   63  A    between atoms: _150  and  _151
REMARK   64  A    between atoms: _150  and  _153
REMARK   65  A    between atoms: _153  and  _154
REMARK   66  A    between atoms: _154  and  _155
REMARK   67  A    between atoms: _155  and  _156
REMARK   68  A    between atoms: _156  and  _157
REMARK   69  A    between atoms: _161  and  _163
REMARK   70  A    between atoms: _163  and  _164
REMARK   71  A    between atoms: _163  and  _166
REMARK   72  A    between atoms: _166  and  _167
REMARK   73  A    between atoms: _170  and  _172
REMARK   74  A    between atoms: _172  and  _173
REMARK   75  A    between atoms: _172  and  _175
REMARK   76  A    between atoms: _175  and  _176
REMARK   77  A    between atoms: _176  and  _177
REMARK   78  A    between atoms: _177  and  _178
REMARK   79  A    between atoms: _187  and  _189
REMARK   80  A    between atoms: _189  and  _190
REMARK   81  A    between atoms: _189  and  _192
REMARK   82  A    between atoms: _192  and  _193
REMARK   83  A    between atoms: _193  and  _194
REMARK   84  A    between atoms: _197  and  _199
REMARK   85  A    between atoms: _199  and  _200
REMARK   86  A    between atoms: _199  and  _202
REMARK   87  A    between atoms: _202  and  _203
REMARK   88  A    between atoms: _206  and  _208
REMARK   89  A    between atoms: _208  and  _209
REMARK   90  A    between atoms: _208  and  _211
REMARK   91  A    between atoms: _211  and  _212
REMARK   92  A    between atoms: _212  and  _213
REMARK   93  A    between atoms: _215  and  _217
REMARK   94  A    between atoms: _217  and  _218
REMARK   95  A    between atoms: _217  and  _220
REMARK   96  A    between atoms: _220  and  _221
REMARK   97  A    between atoms: _224  and  _226
REMARK   98  A    between atoms: _226  and  _227
REMARK   99  A    between atoms: _226  and  _229
REMARK  100  A    between atoms: _229  and  _230
REMARK  101  A    between atoms: _232  and  _234
REMARK  102  A    between atoms: _234  and  _235
REMARK  103  A    between atoms: _234  and  _237
REMARK  104  A    between atoms: _237  and  _238
REMARK  105  A    between atoms: _241  and  _243
REMARK  106  A    between atoms: _243  and  _244
REMARK  107  A    between atoms: _243  and  _246
REMARK  108  A    between atoms: _246  and  _247
REMARK  109  A    between atoms: _250  and  _252
REMARK  110  A    between atoms: _252  and  _253
REMARK  111  A    between atoms: _252  and  _255
REMARK  112  A    between atoms: _255  and  _256
REMARK  113  A    between atoms: _261  and  _263
REMARK  114  A    between atoms: _263  and  _264
REMARK  115  A    between atoms: _263  and  _266
REMARK  116  A    between atoms: _269  and  _271
REMARK  117  A    between atoms: _271  and  _272
REMARK  118  A    between atoms: _271  and  _274
REMARK  119  A    between atoms: _274  and  _275
REMARK  120  A    between atoms: _280  and  _281
REMARK  121  A    between atoms: _283  and  _285
REMARK  122  A    between atoms: _285  and  _286
REMARK  123  A    between atoms: _285  and  _288
REMARK  124  A    between atoms: _288  and  _289
REMARK  125  A    between atoms: _292  and  _294
REMARK  126  A    between atoms: _294  and  _295
REMARK  127  A    between atoms: _294  and  _297
REMARK  128  A    between atoms: _300  and  _302
REMARK  129  A    between atoms: _302  and  _303
REMARK  130  A    between atoms: _302  and  _305
REMARK  131  A    between atoms: _305  and  _306
REMARK  132  A    between atoms: _306  and  _307
REMARK  133  A    between atoms: _309  and  _311
REMARK  134  A    between atoms: _311  and  _312
REMARK  135  A    between atoms: _311  and  _314
REMARK  136  A    between atoms: _314  and  _315
REMARK  137  A    between atoms: _315  and  _316
REMARK  138  A    between atoms: _319  and  _321
REMARK  139  A    between atoms: _321  and  _322
REMARK  140  A    between atoms: _321  and  _324
REMARK  141  A    between atoms: _324  and  _325
REMARK  142  A    between atoms: _328  and  _330
REMARK  143  A    between atoms: _330  and  _331
REMARK  144  A    between atoms: _330  and  _333
REMARK  145  A    between atoms: _333  and  _334
REMARK  146  A    between atoms: _334  and  _335
REMARK  147  A    between atoms: _337  and  _339
REMARK  148  A    between atoms: _339  and  _340
REMARK  149  A    between atoms: _339  and  _342
REMARK  150  A    between atoms: _342  and  _343
REMARK  151  A    between atoms: _346  and  _348
REMARK  152  A    between atoms: _348  and  _349
REMARK  153  A    between atoms: _352  and  _354
REMARK  154  A    between atoms: _354  and  _355
REMARK  155  A    between atoms: _354  and  _357
REMARK  156  A    between atoms: _357  and  _358
REMARK  157  A    between atoms: _363  and  _365
REMARK  158  A    between atoms: _365  and  _366
REMARK  159  A    between atoms: _365  and  _368
REMARK  160  A    between atoms: _368  and  _369
REMARK  161  A    between atoms: _372  and  _374
REMARK  162  A    between atoms: _374  and  _375
REMARK  163  A    between atoms: _374  and  _377
REMARK  164  A    between atoms: _379  and  _381
REMARK  165  A    between atoms: _381  and  _382
REMARK  166  A    between atoms: _381  and  _384
REMARK  167  A    between atoms: _384  and  _385
REMARK  168  A    between atoms: _385  and  _386
REMARK  169  A    between atoms: _391  and  _393
REMARK  170  A    between atoms: _393  and  _394
REMARK  171  A    between atoms: _393  and  _396
REMARK  172  A    between atoms: _396  and  _397
REMARK  173  A    between atoms: _397  and  _398
REMARK  174  A    between atoms: _404  and  _405
REMARK  175  A    between atoms: _410  and  _412
REMARK  176  A    between atoms: _412  and  _413
REMARK  177  A    between atoms: _412  and  _415
REMARK  178  A    between atoms: _415  and  _416
REMARK  179  A    between atoms: _418  and  _420
REMARK  180  A    between atoms: _420  and  _421
REMARK  181  A    between atoms: _420  and  _423
REMARK  182  A    between atoms: _423  and  _424
REMARK  183  A    between atoms: _429  and  _431
REMARK  184  A    between atoms: _431  and  _432
REMARK  185  A    between atoms: _431  and  _434
REMARK  186  A    between atoms: _434  and  _435
REMARK  187  A    between atoms: _438  and  _440
REMARK  188  A    between atoms: _440  and  _441
REMARK  189  A    between atoms: _440  and  _443
REMARK  190  A    between atoms: _446  and  _448
REMARK  191  A    between atoms: _448  and  _449
REMARK  192  A    between atoms: _448  and  _451
REMARK  193  A    between atoms: _454  and  _456
REMARK  194  A    between atoms: _456  and  _457
REMARK  195  A    between atoms: _456  and  _459
REMARK  196  A    between atoms: _459  and  _460
REMARK  197  A    between atoms: _460  and  _461
REMARK  198  A    between atoms: _461  and  _462
REMARK  199  A    between atoms: _462  and  _463
REMARK  200  A    between atoms: _467  and  _469
REMARK  201  A    between atoms: _469  and  _470
REMARK  202  A    between atoms: _469  and  _472
REMARK  203  A    between atoms: _472  and  _473
REMARK  204  A    between atoms: _476  and  _478
REMARK  205  A    between atoms: _478  and  _479
REMARK  206  A    between atoms: _478  and  _481
REMARK  207  A    between atoms: _481  and  _482
REMARK  208  A    between atoms: _485  and  _487
REMARK  209  A    between atoms: _487  and  _488
REMARK  210  A    between atoms: _487  and  _490
REMARK  211  A    between atoms: _490  and  _491
REMARK  212  A    between atoms: _494  and  _496
REMARK  213  A    between atoms: _496  and  _497
REMARK  214  A    between atoms: _496  and  _499
REMARK  215  A    between atoms: _499  and  _500
REMARK                            x       y       z     vdW  Elec       q    Type
REMARK                         _______ _______ _______ _____ _____    ______ ____
ROOT
ATOM      1  CA  ILE A   3      27.730   6.677  34.594  0.00  0.00    +0.149 C 
ENDROOT
BRANCH   1   2
ATOM      2  C   ILE A   3      28.330   7.612  33.572  0.00  0.00    +0.241 C 
ATOM      3  N   GLY A   4      28.173   8.914  33.794  0.00  0.00    -0.295 N 
ATOM      4  H   GLY A   4      27.653   9.244  34.632  0.00  0.00    +0.150 HD
ATOM      5  O   ILE A   3      28.919   7.171  32.590  0.00  0.00    -0.273 OA
BRANCH   3   6
ATOM      6  CA  GLY A   4      28.734   9.872  32.856  0.00  0.00    +0.176 C 
BRANCH   6   7
ATOM      7  C   GLY A   4      28.541  11.319  33.242  0.00  0.00    +0.243 C 
ATOM      8  O   GLY A   4      28.190  11.629  34.391  0.00  0.00    -0.273 OA
ATOM      9  N   SER A   5      28.765  12.198  32.262  0.00  0.00    -0.295 N 
ATOM     10  H   SER A   5      28.975  11.835  31.310  0.00  0.00    +0.150 HD
BRANCH   9  11
ATOM     11  CA  SER A   5      28.729  13.658  32.464  0.00  0.00    +0.178 C 
BRANCH  11  12
ATOM     12  C   SER A   5      28.267  14.365  31.178  0.00  0.00    +0.243 C 
ATOM     13  N   GLY A   6      27.261  15.240  31.333  0.00  0.00    -0.296 N 
ATOM     14  H   GLY A   6      26.783  15.280  32.256  0.00  0.00    +0.150 HD
ATOM     15  O   SER A   5      28.792  14.087  30.085  0.00  0.00    -0.273 OA
BRANCH  13  16
ATOM     16  CA  GLY A   6      26.797  16.143  30.273  0.00  0.00    +0.163 C 
BRANCH  16  17
ATOM     17  C   GLY A   6      27.156  17.592  30.613  0.00  0.00    +0.229 C 
ATOM     18  O   GLY A   6      28.142  17.860  31.328  0.00  0.00    -0.286 OA
ENDBRANCH  16  17
ENDBRANCH  13  16
ENDBRANCH  11  12
BRANCH  11  19
ATOM     19  CB  SER A   5      30.111  14.175  32.902  0.00  0.00    +0.166 C 
BRANCH  19  20
ATOM     20  OG  SER A   5      30.284  15.556  32.598  0.00  0.00    -0.380 OA
ATOM     21  H   SER A   5      30.198  15.691  31.621  0.00  0.00    +0.211 HD
ENDBRANCH  19  20
ENDBRANCH  11  19
ENDBRANCH   9  11
ENDBRANCH   6   7
ENDBRANCH   3   6
ENDBRANCH   1   2
BRANCH   1  23
ATOM     22  C   PRO A   2      29.514   6.408  36.301  0.00  0.00    +0.241 C 
ATOM     23  N   ILE A   3      28.375   6.968  35.877  0.00  0.00    -0.297 N 
ATOM     24  H   ILE A   3      27.915   7.659  36.503  0.00  0.00    +0.150 HD
ATOM     25  O   PRO A   2      30.032   5.404  35.794  0.00  0.00    -0.273 OA
BRANCH  22  32
ATOM     26  C   LYS A   1      29.308   5.389  39.137  0.00  0.00    +0.241 C 
ATOM     27  O   LYS A   1      28.164   5.585  38.737  0.00  0.00    -0.273 OA
ATOM     28  N   PRO A   2      30.349   6.070  38.628  0.00  0.00    -0.272 N 
ATOM     29  CD  PRO A   2      31.776   5.989  38.979  0.00  0.00    +0.094 C 
ATOM     30  CG  PRO A   2      32.322   7.255  38.418  0.00  0.00    +0.024 C 
ATOM     31  CB  PRO A   2      31.539   7.562  37.253  0.00  0.00    +0.031 C 
ATOM     32  CA  PRO A   2      30.127   7.038  37.559  0.00  0.00    +0.152 C 
BRANCH  26  33
ATOM     33  CA  LYS A   1      29.580   4.376  40.291  0.00  0.00    +0.145 C 
BRANCH  33  34
ATOM     34  N   LYS A   1      28.558   4.507  41.339  0.00  0.00    -0.238 NA
ATOM     35  H   LYS A   1      27.578   4.690  41.042  0.00  0.00    +0.142 HD
ENDBRANCH  33  34
BRANCH  33  36
ATOM     36  CB  LYS A   1      29.551   2.942  39.769  0.00  0.00    +0.026 C 
BRANCH  36  37
ATOM     37  CG  LYS A   1      30.444   2.743  38.581  0.00  0.00    -0.000 C 
BRANCH  37  38
ATOM     38  CD  LYS A   1      30.755   1.281  38.287  0.00  0.00    -0.024 C 
BRANCH  38  39
ATOM     39  CE  LYS A   1      31.941   1.162  37.302  0.00  0.00    -0.086 C 
BRANCH  39  40
ATOM     40  NZ  LYS A   1      31.618   1.757  35.965  0.00  0.00    +0.380 N 
ATOM     41  HZ1 LYS A   1      31.390   2.765  36.081  0.00  0.00    -0.089 HD
ATOM     42  HZ2 LYS A   1      30.801   1.261  35.554  0.00  0.00    -0.089 HD
ATOM     43  HZ3 LYS A   1      32.439   1.657  35.335  0.00  0.00    -0.089 HD
ENDBRANCH  39  40
ENDBRANCH  38  39
ENDBRANCH  37  38
ENDBRANCH  36  37
ENDBRANCH  33  36
ENDBRANCH  26  33
ENDBRANCH  22  32
ENDBRANCH   1  23
BRANCH   1  44
ATOM     44  CB  ILE A   3      26.266   7.070  34.580  0.00  0.00    +0.027 C 
ATOM     45  CG2 ILE A   3      25.893   7.512  33.168  0.00  0.00    +0.002 C 
BRANCH  44  46
ATOM     46  CG1 ILE A   3      25.384   5.939  35.094  0.00  0.00    +0.002 C 
ATOM     47  CD1 ILE A   3      23.933   6.295  35.095  0.00  0.00    +0.000 C 
ENDBRANCH  44  46
ENDBRANCH   1  44
TORSDOF 20
REMARK  Name = ../refined-set-2016/2o0u/2o0u_pocket.pdb
REMARK  215 active torsions:
REMARK  status: ('A' for Active; 'I' for Inactive)
REMARK    1  A    between atoms: _1  and  _3
REMARK    2  A    between atoms: _3  and  _4
REMARK    3  A    between atoms: _3  and  _6
REMARK    4  A    between atoms: _6  and  _7
REMARK    5  A    between atoms: _7  and  _8
REMARK    6  A    between atoms: _8  and  _9
REMARK    7  A    between atoms: _9  and  _10
REMARK    8  A    between atoms: _15  and  _16
REMARK    9  A    between atoms: _21  and  _23
REMARK   10  A    between atoms: _23  and  _24
REMARK   11  A    between atoms: _23  and  _26
REMARK   12  A    between atoms: _26  and  _27
REMARK   13  A    between atoms: _30  and  _32
REMARK   14  A    between atoms: _32  and  _33
REMARK   15  A    between atoms: _35  and  _37
REMARK   16  A    between atoms: _37  and  _38
REMARK   17  A    between atoms: _37  and  _40
REMARK   18  A    between atoms: _40  and  _41
REMARK   19  A    between atoms: _43  and  _45
REMARK   20  A    between atoms: _45  and  _46
REMARK   21  A    between atoms: _48  and  _50
REMARK   22  A    between atoms: _50  and  _51
REMARK   23  A    between atoms: _50  and  _53
REMARK   24  A    between atoms: _53  and  _54
REMARK   25  A    between atoms: _54  and  _55
REMARK   26  A    between atoms: _60  and  _62
REMARK   27  A    between atoms: _62  and  _63
REMARK   28  A    between atoms: _65  and  _67
REMARK   29  A    between atoms: _67  and  _68
REMARK   30  A    between atoms: _67  and  _70
REMARK   31  A    between atoms: _70  and  _71
REMARK   32  A    between atoms: _74  and  _76
REMARK   33  A    between atoms: _76  and  _77
REMARK   34  A    between atoms: _76  and  _79
REMARK   35  A    between atoms: _82  and  _84
REMARK   36  A    between atoms: _84  and  _85
REMARK   37  A    between atoms: _84  and  _87
REMARK   38  A    between atoms: _89  and  _91
REMARK   39  A    between atoms: _91  and  _92
REMARK   40  A    between atoms: _95  and  _97
REMARK   41  A    between atoms: _97  and  _98
REMARK   42  A    between atoms: _101  and  _103
REMARK   43  A    between atoms: _103  and  _104
REMARK   44  A    between atoms: _103  and  _106
REMARK   45  A    between atoms: _106  and  _107
REMARK   46  A    between atoms: _112  and  _114
REMARK   47  A    between atoms: _114  and  _115
REMARK   48  A    between atoms: _114  and  _117
REMARK   49  A    between atoms: _120  and  _122
REMARK   50  A    between atoms: _122  and  _123
REMARK   51  A    between atoms: _126  and  _128
REMARK   52  A    between atoms: _128  and  _129
REMARK   53  A    between atoms: _128  and  _131
REMARK   54  A    between atoms: _131  and  _132
REMARK   55  A    between atoms: _135  and  _137
REMARK   56  A    between atoms: _137  and  _138
REMARK   57  A    between atoms: _137  and  _140
REMARK   58  A    between atoms: _140  and  _141
REMARK   59  A    between atoms: _141  and  _142
REMARK   60  A    between atoms: _142  and  _143
REMARK   61  A    between atoms: _143  and  _144
REMARK   62  A    between atoms: _148  and  _150
REMARK   63  A    between atoms: _150  and  _151
REMARK   64  A    between atoms: _150  and  _153
REMARK   65  A    between atoms: _153  and  _154
REMARK   66  A    between atoms: _154  and  _155
REMARK   67  A    between atoms: _155  and  _156
REMARK   68  A    between atoms: _156  and  _157
REMARK   69  A    between atoms: _161  and  _163
REMARK   70  A    between atoms: _163  and  _164
REMARK   71  A    between atoms: _163  and  _166
REMARK   72  A    between atoms: _166  and  _167
REMARK   73  A    between atoms: _170  and  _172
REMARK   74  A    between atoms: _172  and  _173
REMARK   75  A    between atoms: _172  and  _175
REMARK   76  A    between atoms: _175  and  _176
REMARK   77  A    between atoms: _176  and  _177
REMARK   78  A    between atoms: _177  and  _178
REMARK   79  A    between atoms: _187  and  _189
REMARK   80  A    between atoms: _189  and  _190
REMARK   81  A    between atoms: _189  and  _192
REMARK   82  A    between atoms: _192  and  _193
REMARK   83  A    between atoms: _193  and  _194
REMARK   84  A    between atoms: _197  and  _199
REMARK   85  A    between atoms: _199  and  _200
REMARK   86  A    between atoms: _199  and  _202
REMARK   87  A    between atoms: _202  and  _203
REMARK   88  A    between atoms: _206  and  _208
REMARK   89  A    between atoms: _208  and  _209
REMARK   90  A    between atoms: _208  and  _211
REMARK   91  A    between atoms: _211  and  _212
REMARK   92  A    between atoms: _212  and  _213
REMARK   93  A    between atoms: _215  and  _217
REMARK   94  A    between atoms: _217  and  _218
REMARK   95  A    between atoms: _217  and  _220
REMARK   96  A    between atoms: _220  and  _221
REMARK   97  A    between atoms: _224  and  _226
REMARK   98  A    between atoms: _226  and  _227
REMARK   99  A    between atoms: _226  and  _229
REMARK  100  A    between atoms: _229  and  _230
REMARK  101  A    between atoms: _232  and  _234
REMARK  102  A    between atoms: _234  and  _235
REMARK  103  A    between atoms: _234  and  _237
REMARK  104  A    between atoms: _237  and  _238
REMARK  105  A    between atoms: _241  and  _243
REMARK  106  A    between atoms: _243  and  _244
REMARK  107  A    between atoms: _243  and  _246
REMARK  108  A    between atoms: _246  and  _247
REMARK  109  A    between atoms: _250  and  _252
REMARK  110  A    between atoms: _252  and  _253
REMARK  111  A    between atoms: _252  and  _255
REMARK  112  A    between atoms: _255  and  _256
REMARK  113  A    between atoms: _261  and  _263
REMARK  114  A    between atoms: _263  and  _264
REMARK  115  A    between atoms: _263  and  _266
REMARK  116  A    between atoms: _269  and  _271
REMARK  117  A    between atoms: _271  and  _272
REMARK  118  A    between atoms: _271  and  _274
REMARK  119  A    between atoms: _274  and  _275
REMARK  120  A    between atoms: _280  and  _281
REMARK  121  A    between atoms: _283  and  _285
REMARK  122  A    between atoms: _285  and  _286
REMARK  123  A    between atoms: _285  and  _288
REMARK  124  A    between atoms: _288  and  _289
REMARK  125  A    between atoms: _292  and  _294
REMARK  126  A    between atoms: _294  and  _295
REMARK  127  A    between atoms: _294  and  _297
REMARK  128  A    between atoms: _300  and  _302
REMARK  129  A    between atoms: _302  and  _303
REMARK  130  A    between atoms: _302  and  _305
REMARK  131  A    between atoms: _305  and  _306
REMARK  132  A    between atoms: _306  and  _307
REMARK  133  A    between atoms: _309  and  _311
REMARK  134  A    between atoms: _311  and  _312
REMARK  135  A    between atoms: _311  and  _314
REMARK  136  A    between atoms: _314  and  _315
REMARK  137  A    between atoms: _315  and  _316
REMARK  138  A    between atoms: _319  and  _321
REMARK  139  A    between atoms: _321  and  _322
REMARK  140  A    between atoms: _321  and  _324
REMARK  141  A    between atoms: _324  and  _325
REMARK  142  A    between atoms: _328  and  _330
REMARK  143  A    between atoms: _330  and  _331
REMARK  144  A    between atoms: _330  and  _333
REMARK  145  A    between atoms: _333  and  _334
REMARK  146  A    between atoms: _334  and  _335
REMARK  147  A    between atoms: _337  and  _339
REMARK  148  A    between atoms: _339  and  _340
REMARK  149  A    between atoms: _339  and  _342
REMARK  150  A    between atoms: _342  and  _343
REMARK  151  A    between atoms: _346  and  _348
REMARK  152  A    between atoms: _348  and  _349
REMARK  153  A    between atoms: _352  and  _354
REMARK  154  A    between atoms: _354  and  _355
REMARK  155  A    between atoms: _354  and  _357
REMARK  156  A    between atoms: _357  and  _358
REMARK  157  A    between atoms: _363  and  _365
REMARK  158  A    between atoms: _365  and  _366
REMARK  159  A    between atoms: _365  and  _368
REMARK  160  A    between atoms: _368  and  _369
REMARK  161  A    between atoms: _372  and  _374
REMARK  162  A    between atoms: _374  and  _375
REMARK  163  A    between atoms: _374  and  _377
REMARK  164  A    between atoms: _379  and  _381
REMARK  165  A    between atoms: _381  and  _382
REMARK  166  A    between atoms: _381  and  _384
REMARK  167  A    between atoms: _384  and  _385
REMARK  168  A    between atoms: _385  and  _386
REMARK  169  A    between atoms: _391  and  _393
REMARK  170  A    between atoms: _393  and  _394
REMARK  171  A    between atoms: _393  and  _396
REMARK  172  A    between atoms: _396  and  _397
REMARK  173  A    between atoms: _397  and  _398
REMARK  174  A    between atoms: _404  and  _405
REMARK  175  A    between atoms: _410  and  _412
REMARK  176  A    between atoms: _412  and  _413
REMARK  177  A    between atoms: _412  and  _415
REMARK  178  A    between atoms: _415  and  _416
REMARK  179  A    between atoms: _418  and  _420
REMARK  180  A    between atoms: _420  and  _421
REMARK  181  A    between atoms: _420  and  _423
REMARK  182  A    between atoms: _423  and  _424
REMARK  183  A    between atoms: _429  and  _431
REMARK  184  A    between atoms: _431  and  _432
REMARK  185  A    between atoms: _431  and  _434
REMARK  186  A    between atoms: _434  and  _435
REMARK  187  A    between atoms: _438  and  _440
REMARK  188  A    between atoms: _440  and  _441
REMARK  189  A    between atoms: _440  and  _443
REMARK  190  A    between atoms: _446  and  _448
REMARK  191  A    between atoms: _448  and  _449
REMARK  192  A    between atoms: _448  and  _451
REMARK  193  A    between atoms: _454  and  _456
REMARK  194  A    between atoms: _456  and  _457
REMARK  195  A    between atoms: _456  and  _459
REMARK  196  A    between atoms: _459  and  _460
REMARK  197  A    between atoms: _460  and  _461
REMARK  198  A    between atoms: _461  and  _462
REMARK  199  A    between atoms: _462  and  _463
REMARK  200  A    between atoms: _467  and  _469
REMARK  201  A    between atoms: _469  and  _470
REMARK  202  A    between atoms: _469  and  _472
REMARK  203  A    between atoms: _472  and  _473
REMARK  204  A    between atoms: _476  and  _478
REMARK  205  A    between atoms: _478  and  _479
REMARK  206  A    between atoms: _478  and  _481
REMARK  207  A    between atoms: _481  and  _482
REMARK  208  A    between atoms: _485  and  _487
REMARK  209  A    between atoms: _487  and  _488
REMARK  210  A    between atoms: _487  and  _490
REMARK  211  A    between atoms: _490  and  _491
REMARK  212  A    between atoms: _494  and  _496
REMARK  213  A    between atoms: _496  and  _497
REMARK  214  A    between atoms: _496  and  _499
REMARK  215  A    between atoms: _499  and  _500
REMARK                            x       y       z     vdW  Elec       q    Type
REMARK                         _______ _______ _______ _____ _____    ______ ____
ROOT
ATOM      1  C   ILE A   3      26.453  13.525  37.382  0.00  0.00    +0.241 C 
ATOM      2  O   ILE A   3      25.471  13.819  38.064  0.00  0.00    -0.273 OA
ATOM      3  N   VAL A   4      26.658  12.324  36.848  0.00  0.00    -0.297 N 
ATOM      4  H   VAL A   4      27.566  12.120  36.383  0.00  0.00    +0.150 HD
ENDROOT
BRANCH   3   5
ATOM      5  CA  VAL A   4      25.635  11.289  36.903  0.00  0.00    +0.149 C 
BRANCH   5   6
ATOM      6  C   VAL A   4      26.242   9.976  37.383  0.00  0.00    +0.241 C 
ATOM      7  N   CYS A   5      25.564   9.323  38.346  0.00  0.00    -0.296 N 
ATOM      8  H   CYS A   5      24.663   9.725  38.675  0.00  0.00    +0.150 HD
ATOM      9  O   VAL A   4      27.282   9.560  36.853  0.00  0.00    -0.273 OA
BRANCH   7  10
ATOM     10  CA  CYS A   5      26.036   8.065  38.958  0.00  0.00    +0.160 C 
BRANCH  10  11
ATOM     11  C   CYS A   5      25.021   6.959  38.896  0.00  0.00    +0.242 C 
ATOM     12  O   CYS A   5      23.808   7.226  39.027  0.00  0.00    -0.273 OA
ATOM     13  N   ALA A   6      25.507   5.725  38.718  0.00  0.00    -0.297 N 
ATOM     14  H   ALA A   6      26.504   5.613  38.443  0.00  0.00    +0.150 HD
BRANCH  13  15
ATOM     15  CA  ALA A   6      24.681   4.520  38.898  0.00  0.00    +0.149 C 
ATOM     16  CB  ALA A   6      25.183   3.344  38.038  0.00  0.00    +0.031 C 
BRANCH  15  17
ATOM     17  C   ALA A   6      24.705   4.161  40.389  0.00  0.00    +0.241 C 
ATOM     18  O   ALA A   6      25.723   4.316  41.052  0.00  0.00    -0.273 OA
ATOM     19  N   ALA A   7      23.575   3.708  40.926  0.00  0.00    -0.298 N 
ATOM     20  H   ALA A   7      22.722   3.630  40.336  0.00  0.00    +0.150 HD
BRANCH  19  21
ATOM     21  CA  ALA A   7      23.515   3.319  42.334  0.00  0.00    +0.137 C 
ATOM     22  CB  ALA A   7      23.162   4.520  43.229  0.00  0.00    +0.030 C 
BRANCH  21  23
ATOM     23  C   ALA A   7      22.490   2.219  42.512  0.00  0.00    +0.227 C 
ATOM     24  O   ALA A   7      21.650   2.021  41.654  0.00  0.00    -0.286 OA
ENDBRANCH  21  23
ENDBRANCH  19  21
ENDBRANCH  15  17
ENDBRANCH  13  15
ENDBRANCH  10  11
BRANCH  10  25
ATOM     25  CB  CYS A   5      26.407   8.284  40.446  0.00  0.00    +0.098 C 
ATOM     26  SG  CYS A   5      28.183   8.567  40.577  0.00  0.00    -0.080 S 
ENDBRANCH  10  25
ENDBRANCH   7  10
ENDBRANCH   5   6
BRANCH   5  27
ATOM     27  CB  VAL A   4      24.961  11.043  35.519  0.00  0.00    +0.027 C 
ATOM     28  CG2 VAL A   4      23.840  10.068  35.680  0.00  0.00    +0.002 C 
ATOM     29  CG1 VAL A   4      24.455  12.335  34.903  0.00  0.00    +0.002 C 
ENDBRANCH   5  27
ENDBRANCH   3   5
BRANCH   1  30
ATOM     30  CA  ILE A   3      27.492  14.584  37.131  0.00  0.00    +0.149 C 
BRANCH  30  32
ATOM     31  C   GLY A   2      26.393  16.380  35.909  0.00  0.00    +0.243 C 
ATOM     32  N   ILE A   3      26.641  15.761  37.053  0.00  0.00    -0.297 N 
ATOM     33  H   ILE A   3      26.212  16.129  37.926  0.00  0.00    +0.150 HD
ATOM     34  O   GLY A   2      26.833  15.987  34.814  0.00  0.00    -0.273 OA
BRANCH  31  35
ATOM     35  CA  GLY A   2      25.529  17.629  36.046  0.00  0.00    +0.176 C 
BRANCH  35  38
ATOM     36  C   GLN A   1      24.408  19.356  34.695  0.00  0.00    +0.238 C 
ATOM     37  O   GLN A   1      23.998  19.995  35.684  0.00  0.00    -0.274 OA
ATOM     38  N   GLY A   2      25.204  18.286  34.773  0.00  0.00    -0.296 N 
ATOM     39  H   GLY A   2      25.610  17.902  33.896  0.00  0.00    +0.150 HD
BRANCH  36  40
ATOM     40  CA  GLN A   1      24.006  19.761  33.276  0.00  0.00    +0.145 C 
BRANCH  40  41
ATOM     41  N   GLN A   1      25.006  19.405  32.253  0.00  0.00    -0.238 NA
ATOM     42  H   GLN A   1      24.985  18.445  31.853  0.00  0.00    +0.142 HD
ENDBRANCH  40  41
BRANCH  40  43
ATOM     43  CB  GLN A   1      22.668  19.084  32.939  0.00  0.00    +0.036 C 
BRANCH  43  44
ATOM     44  CG  GLN A   1      22.446  18.781  31.433  0.00  0.00    +0.087 C 
BRANCH  44  45
ATOM     45  CD  GLN A   1      23.101  17.464  30.952  0.00  0.00    +0.219 C 
ATOM     46  OE1 GLN A   1      23.344  16.543  31.752  0.00  0.00    -0.275 OA
ATOM     47  NE2 GLN A   1      23.363  17.371  29.641  0.00  0.00    -0.329 N 
ATOM     48 HE21 GLN A   1      23.786  16.503  29.256  0.00  0.00    +0.145 HD
ATOM     49 HE22 GLN A   1      23.143  18.167  29.009  0.00  0.00    +0.145 HD
ENDBRANCH  44  45
ENDBRANCH  43  44
ENDBRANCH  40  43
ENDBRANCH  36  40
ENDBRANCH  35  38
ENDBRANCH  31  35
ENDBRANCH  30  32
BRANCH  30  50
ATOM     50  CB  ILE A   3      28.493  14.627  38.330  0.00  0.00    +0.027 C 
ATOM     51  CG2 ILE A   3      29.857  14.071  37.902  0.00  0.00    +0.002 C 
BRANCH  50  52
ATOM     52  CG1 ILE A   3      28.574  16.031  38.977  0.00  0.00    +0.002 C 
ATOM     53  CD1 ILE A   3      28.845  17.208  38.030  0.00  0.00    +0.000 C 
ENDBRANCH  50  52
ENDBRANCH  30  50
ENDBRANCH   1  30
TORSDOF 21
REMARK  Name = ../refined-set-2016/2o0u/2o0u_pocket.pdb
REMARK  215 active torsions:
REMARK  status: ('A' for Active; 'I' for Inactive)
REMARK    1  A    between atoms: _1  and  _3
REMARK    2  A    between atoms: _3  and  _4
REMARK    3  A    between atoms: _3  and  _6
REMARK    4  A    between atoms: _6  and  _7
REMARK    5  A    between atoms: _7  and  _8
REMARK    6  A    between atoms: _8  and  _9
REMARK    7  A    between atoms: _9  and  _10
REMARK    8  A    between atoms: _15  and  _16
REMARK    9  A    between atoms: _21  and  _23
REMARK   10  A    between atoms: _23  and  _24
REMARK   11  A    between atoms: _23  and  _26
REMARK   12  A    between atoms: _26  and  _27
REMARK   13  A    between atoms: _30  and  _32
REMARK   14  A    between atoms: _32  and  _33
REMARK   15  A    between atoms: _35  and  _37
REMARK   16  A    between atoms: _37  and  _38
REMARK   17  A    between atoms: _37  and  _40
REMARK   18  A    between atoms: _40  and  _41
REMARK   19  A    between atoms: _43  and  _45
REMARK   20  A    between atoms: _45  and  _46
REMARK   21  A    between atoms: _48  and  _50
REMARK   22  A    between atoms: _50  and  _51
REMARK   23  A    between atoms: _50  and  _53
REMARK   24  A    between atoms: _53  and  _54
REMARK   25  A    between atoms: _54  and  _55
REMARK   26  A    between atoms: _60  and  _62
REMARK   27  A    between atoms: _62  and  _63
REMARK   28  A    between atoms: _65  and  _67
REMARK   29  A    between atoms: _67  and  _68
REMARK   30  A    between atoms: _67  and  _70
REMARK   31  A    between atoms: _70  and  _71
REMARK   32  A    between atoms: _74  and  _76
REMARK   33  A    between atoms: _76  and  _77
REMARK   34  A    between atoms: _76  and  _79
REMARK   35  A    between atoms: _82  and  _84
REMARK   36  A    between atoms: _84  and  _85
REMARK   37  A    between atoms: _84  and  _87
REMARK   38  A    between atoms: _89  and  _91
REMARK   39  A    between atoms: _91  and  _92
REMARK   40  A    between atoms: _95  and  _97
REMARK   41  A    between atoms: _97  and  _98
REMARK   42  A    between atoms: _101  and  _103
REMARK   43  A    between atoms: _103  and  _104
REMARK   44  A    between atoms: _103  and  _106
REMARK   45  A    between atoms: _106  and  _107
REMARK   46  A    between atoms: _112  and  _114
REMARK   47  A    between atoms: _114  and  _115
REMARK   48  A    between atoms: _114  and  _117
REMARK   49  A    between atoms: _120  and  _122
REMARK   50  A    between atoms: _122  and  _123
REMARK   51  A    between atoms: _126  and  _128
REMARK   52  A    between atoms: _128  and  _129
REMARK   53  A    between atoms: _128  and  _131
REMARK   54  A    between atoms: _131  and  _132
REMARK   55  A    between atoms: _135  and  _137
REMARK   56  A    between atoms: _137  and  _138
REMARK   57  A    between atoms: _137  and  _140
REMARK   58  A    between atoms: _140  and  _141
REMARK   59  A    between atoms: _141  and  _142
REMARK   60  A    between atoms: _142  and  _143
REMARK   61  A    between atoms: _143  and  _144
REMARK   62  A    between atoms: _148  and  _150
REMARK   63  A    between atoms: _150  and  _151
REMARK   64  A    between atoms: _150  and  _153
REMARK   65  A    between atoms: _153  and  _154
REMARK   66  A    between atoms: _154  and  _155
REMARK   67  A    between atoms: _155  and  _156
REMARK   68  A    between atoms: _156  and  _157
REMARK   69  A    between atoms: _161  and  _163
REMARK   70  A    between atoms: _163  and  _164
REMARK   71  A    between atoms: _163  and  _166
REMARK   72  A    between atoms: _166  and  _167
REMARK   73  A    between atoms: _170  and  _172
REMARK   74  A    between atoms: _172  and  _173
REMARK   75  A    between atoms: _172  and  _175
REMARK   76  A    between atoms: _175  and  _176
REMARK   77  A    between atoms: _176  and  _177
REMARK   78  A    between atoms: _177  and  _178
REMARK   79  A    between atoms: _187  and  _189
REMARK   80  A    between atoms: _189  and  _190
REMARK   81  A    between atoms: _189  and  _192
REMARK   82  A    between atoms: _192  and  _193
REMARK   83  A    between atoms: _193  and  _194
REMARK   84  A    between atoms: _197  and  _199
REMARK   85  A    between atoms: _199  and  _200
REMARK   86  A    between atoms: _199  and  _202
REMARK   87  A    between atoms: _202  and  _203
REMARK   88  A    between atoms: _206  and  _208
REMARK   89  A    between atoms: _208  and  _209
REMARK   90  A    between atoms: _208  and  _211
REMARK   91  A    between atoms: _211  and  _212
REMARK   92  A    between atoms: _212  and  _213
REMARK   93  A    between atoms: _215  and  _217
REMARK   94  A    between atoms: _217  and  _218
REMARK   95  A    between atoms: _217  and  _220
REMARK   96  A    between atoms: _220  and  _221
REMARK   97  A    between atoms: _224  and  _226
REMARK   98  A    between atoms: _226  and  _227
REMARK   99  A    between atoms: _226  and  _229
REMARK  100  A    between atoms: _229  and  _230
REMARK  101  A    between atoms: _232  and  _234
REMARK  102  A    between atoms: _234  and  _235
REMARK  103  A    between atoms: _234  and  _237
REMARK  104  A    between atoms: _237  and  _238
REMARK  105  A    between atoms: _241  and  _243
REMARK  106  A    between atoms: _243  and  _244
REMARK  107  A    between atoms: _243  and  _246
REMARK  108  A    between atoms: _246  and  _247
REMARK  109  A    between atoms: _250  and  _252
REMARK  110  A    between atoms: _252  and  _253
REMARK  111  A    between atoms: _252  and  _255
REMARK  112  A    between atoms: _255  and  _256
REMARK  113  A    between atoms: _261  and  _263
REMARK  114  A    between atoms: _263  and  _264
REMARK  115  A    between atoms: _263  and  _266
REMARK  116  A    between atoms: _269  and  _271
REMARK  117  A    between atoms: _271  and  _272
REMARK  118  A    between atoms: _271  and  _274
REMARK  119  A    between atoms: _274  and  _275
REMARK  120  A    between atoms: _280  and  _281
REMARK  121  A    between atoms: _283  and  _285
REMARK  122  A    between atoms: _285  and  _286
REMARK  123  A    between atoms: _285  and  _288
REMARK  124  A    between atoms: _288  and  _289
REMARK  125  A    between atoms: _292  and  _294
REMARK  126  A    between atoms: _294  and  _295
REMARK  127  A    between atoms: _294  and  _297
REMARK  128  A    between atoms: _300  and  _302
REMARK  129  A    between atoms: _302  and  _303
REMARK  130  A    between atoms: _302  and  _305
REMARK  131  A    between atoms: _305  and  _306
REMARK  132  A    between atoms: _306  and  _307
REMARK  133  A    between atoms: _309  and  _311
REMARK  134  A    between atoms: _311  and  _312
REMARK  135  A    between atoms: _311  and  _314
REMARK  136  A    between atoms: _314  and  _315
REMARK  137  A    between atoms: _315  and  _316
REMARK  138  A    between atoms: _319  and  _321
REMARK  139  A    between atoms: _321  and  _322
REMARK  140  A    between atoms: _321  and  _324
REMARK  141  A    between atoms: _324  and  _325
REMARK  142  A    between atoms: _328  and  _330
REMARK  143  A    between atoms: _330  and  _331
REMARK  144  A    between atoms: _330  and  _333
REMARK  145  A    between atoms: _333  and  _334
REMARK  146  A    between atoms: _334  and  _335
REMARK  147  A    between atoms: _337  and  _339
REMARK  148  A    between atoms: _339  and  _340
REMARK  149  A    between atoms: _339  and  _342
REMARK  150  A    between atoms: _342  and  _343
REMARK  151  A    between atoms: _346  and  _348
REMARK  152  A    between atoms: _348  and  _349
REMARK  153  A    between atoms: _352  and  _354
REMARK  154  A    between atoms: _354  and  _355
REMARK  155  A    between atoms: _354  and  _357
REMARK  156  A    between atoms: _357  and  _358
REMARK  157  A    between atoms: _363  and  _365
REMARK  158  A    between atoms: _365  and  _366
REMARK  159  A    between atoms: _365  and  _368
REMARK  160  A    between atoms: _368  and  _369
REMARK  161  A    between atoms: _372  and  _374
REMARK  162  A    between atoms: _374  and  _375
REMARK  163  A    between atoms: _374  and  _377
REMARK  164  A    between atoms: _379  and  _381
REMARK  165  A    between atoms: _381  and  _382
REMARK  166  A    between atoms: _381  and  _384
REMARK  167  A    between atoms: _384  and  _385
REMARK  168  A    between atoms: _385  and  _386
REMARK  169  A    between atoms: _391  and  _393
REMARK  170  A    between atoms: _393  and  _394
REMARK  171  A    between atoms: _393  and  _396
REMARK  172  A    between atoms: _396  and  _397
REMARK  173  A    between atoms: _397  and  _398
REMARK  174  A    between atoms: _404  and  _405
REMARK  175  A    between atoms: _410  and  _412
REMARK  176  A    between atoms: _412  and  _413
REMARK  177  A    between atoms: _412  and  _415
REMARK  178  A    between atoms: _415  and  _416
REMARK  179  A    between atoms: _418  and  _420
REMARK  180  A    between atoms: _420  and  _421
REMARK  181  A    between atoms: _420  and  _423
REMARK  182  A    between atoms: _423  and  _424
REMARK  183  A    between atoms: _429  and  _431
REMARK  184  A    between atoms: _431  and  _432
REMARK  185  A    between atoms: _431  and  _434
REMARK  186  A    between atoms: _434  and  _435
REMARK  187  A    between atoms: _438  and  _440
REMARK  188  A    between atoms: _440  and  _441
REMARK  189  A    between atoms: _440  and  _443
REMARK  190  A    between atoms: _446  and  _448
REMARK  191  A    between atoms: _448  and  _449
REMARK  192  A    between atoms: _448  and  _451
REMARK  193  A    between atoms: _454  and  _456
REMARK  194  A    between atoms: _456  and  _457
REMARK  195  A    between atoms: _456  and  _459
REMARK  196  A    between atoms: _459  and  _460
REMARK  197  A    between atoms: _460  and  _461
REMARK  198  A    between atoms: _461  and  _462
REMARK  199  A    between atoms: _462  and  _463
REMARK  200  A    between atoms: _467  and  _469
REMARK  201  A    between atoms: _469  and  _470
REMARK  202  A    between atoms: _469  and  _472
REMARK  203  A    between atoms: _472  and  _473
REMARK  204  A    between atoms: _476  and  _478
REMARK  205  A    between atoms: _478  and  _479
REMARK  206  A    between atoms: _478  and  _481
REMARK  207  A    between atoms: _481  and  _482
REMARK  208  A    between atoms: _485  and  _487
REMARK  209  A    between atoms: _487  and  _488
REMARK  210  A    between atoms: _487  and  _490
REMARK  211  A    between atoms: _490  and  _491
REMARK  212  A    between atoms: _494  and  _496
REMARK  213  A    between atoms: _496  and  _497
REMARK  214  A    between atoms: _496  and  _499
REMARK  215  A    between atoms: _499  and  _500
REMARK                            x       y       z     vdW  Elec       q    Type
REMARK                         _______ _______ _______ _____ _____    ______ ____
ROOT
ATOM      1  C   ILE A   4      22.175  10.976  39.521  0.00  0.00    +0.241 C 
ATOM      2  O   ILE A   4      23.358  10.760  39.287  0.00  0.00    -0.273 OA
ATOM      3  N   LYS A   5      21.551  12.101  39.185  0.00  0.00    -0.297 N 
ATOM      4  H   LYS A   5      20.524  12.154  39.338  0.00  0.00    +0.150 HD
ENDROOT
BRANCH   3   5
ATOM      5  CA  LYS A   5      22.225  13.274  38.611  0.00  0.00    +0.149 C 
BRANCH   5   6
ATOM      6  C   LYS A   5      22.350  14.341  39.690  0.00  0.00    +0.241 C 
ATOM      7  O   LYS A   5      21.356  14.710  40.310  0.00  0.00    -0.273 OA
ATOM      8  N   LYS A   6      23.571  14.825  39.877  0.00  0.00    -0.297 N 
ATOM      9  H   LYS A   6      24.369  14.360  39.399  0.00  0.00    +0.150 HD
BRANCH   8  10
ATOM     10  CA  LYS A   6      23.841  15.979  40.722  0.00  0.00    +0.149 C 
BRANCH  10  11
ATOM     11  C   LYS A   6      23.911  17.287  39.940  0.00  0.00    +0.241 C 
ATOM     12  N   LEU A   7      23.097  18.229  40.392  0.00  0.00    -0.298 N 
ATOM     13  H   LEU A   7      22.410  17.977  41.131  0.00  0.00    +0.150 HD
ATOM     14  O   LYS A   6      24.672  17.431  38.983  0.00  0.00    -0.273 OA
BRANCH  12  15
ATOM     15  CA  LEU A   7      23.117  19.595  39.906  0.00  0.00    +0.137 C 
BRANCH  15  16
ATOM     16  C   LEU A   7      23.806  20.454  41.003  0.00  0.00    +0.227 C 
ATOM     17  O   LEU A   7      23.214  20.679  42.072  0.00  0.00    -0.286 OA
ENDBRANCH  15  16
BRANCH  15  18
ATOM     18  CB  LEU A   7      21.685  20.074  39.702  0.00  0.00    +0.028 C 
BRANCH  18  19
ATOM     19  CG  LEU A   7      20.851  19.929  38.416  0.00  0.00    +0.002 C 
ATOM     20  CD2 LEU A   7      19.421  20.081  38.824  0.00  0.00    +0.000 C 
ATOM     21  CD1 LEU A   7      21.073  18.714  37.553  0.00  0.00    +0.000 C 
ENDBRANCH  18  19
ENDBRANCH  15  18
ENDBRANCH  12  15
ENDBRANCH  10  11
BRANCH  10  22
ATOM     22  CB  LYS A   6      25.152  15.790  41.476  0.00  0.00    +0.029 C 
BRANCH  22  23
ATOM     23  CG  LYS A   6      25.486  16.932  42.459  0.00  0.00    +0.000 C 
BRANCH  23  24
ATOM     24  CD  LYS A   6      26.907  16.792  42.978  0.00  0.00    -0.024 C 
BRANCH  24  25
ATOM     25  CE  LYS A   6      27.259  17.990  43.800  0.00  0.00    -0.086 C 
BRANCH  25  26
ATOM     26  NZ  LYS A   6      28.407  17.720  44.684  0.00  0.00    +0.380 N 
ATOM     27  HZ1 LYS A   6      28.172  16.937  45.326  0.00  0.00    -0.089 HD
ATOM     28  HZ2 LYS A   6      28.623  18.572  45.239  0.00  0.00    -0.089 HD
ATOM     29  HZ3 LYS A   6      29.233  17.461  44.108  0.00  0.00    -0.089 HD
ENDBRANCH  25  26
ENDBRANCH  24  25
ENDBRANCH  23  24
ENDBRANCH  22  23
ENDBRANCH  10  22
ENDBRANCH   8  10
ENDBRANCH   5   6
BRANCH   5  30
ATOM     30  CB  LYS A   5      21.417  13.868  37.454  0.00  0.00    +0.029 C 
BRANCH  30  31
ATOM     31  CG  LYS A   5      22.040  15.069  36.726  0.00  0.00    +0.000 C 
BRANCH  31  32
ATOM     32  CD  LYS A   5      21.273  15.294  35.471  0.00  0.00    -0.024 C 
BRANCH  32  33
ATOM     33  CE  LYS A   5      21.806  16.338  34.644  0.00  0.00    -0.086 C 
BRANCH  33  34
ATOM     34  NZ  LYS A   5      21.194  16.142  33.269  0.00  0.00    +0.380 N 
ATOM     35  HZ1 LYS A   5      20.159  16.211  33.339  0.00  0.00    -0.089 HD
ATOM     36  HZ2 LYS A   5      21.457  15.204  32.904  0.00  0.00    -0.089 HD
ATOM     37  HZ3 LYS A   5      21.549  16.877  32.625  0.00  0.00    -0.089 HD
ENDBRANCH  33  34
ENDBRANCH  32  33
ENDBRANCH  31  32
ENDBRANCH  30  31
ENDBRANCH   5  30
ENDBRANCH   3   5
BRANCH   1  38
ATOM     38  CA  ILE A   4      21.331   9.901  40.194  0.00  0.00    +0.149 C 
BRANCH  38  40
ATOM     39  C   ALA A   3      20.413   7.995  38.894  0.00  0.00    +0.241 C 
ATOM     40  N   ILE A   4      21.439   8.654  39.405  0.00  0.00    -0.297 N 
ATOM     41  H   ILE A   4      22.391   8.268  39.240  0.00  0.00    +0.150 HD
ATOM     42  O   ALA A   3      19.246   8.323  39.091  0.00  0.00    -0.273 OA
BRANCH  39  43
ATOM     43  CA  ALA A   3      20.726   6.730  38.086  0.00  0.00    +0.149 C 
ATOM     44  CB  ALA A   3      20.699   6.999  36.582  0.00  0.00    +0.031 C 
BRANCH  43  47
ATOM     45  C   VAL A   2      19.968   4.671  39.126  0.00  0.00    +0.241 C 
ATOM     46  O   VAL A   2      21.113   4.251  39.204  0.00  0.00    -0.273 OA
ATOM     47  N   ALA A   3      19.672   5.784  38.471  0.00  0.00    -0.297 N 
ATOM     48  H   ALA A   3      18.682   5.990  38.227  0.00  0.00    +0.150 HD
BRANCH  45  49
ATOM     49  CA  VAL A   2      18.800   3.885  39.703  0.00  0.00    +0.148 C 
BRANCH  49  51
ATOM     50  C   ASN A   1      18.565   1.422  39.645  0.00  0.00    +0.239 C 
ATOM     51  N   VAL A   2      19.256   2.528  39.991  0.00  0.00    -0.297 N 
ATOM     52  H   VAL A   2      20.161   2.408  40.489  0.00  0.00    +0.150 HD
ATOM     53  O   ASN A   1      17.491   1.420  38.977  0.00  0.00    -0.274 OA
BRANCH  50  54
ATOM     54  CA  ASN A   1      19.153   0.124  40.207  0.00  0.00    +0.154 C 
BRANCH  54  55
ATOM     55  N   ASN A   1      18.120  -0.776  40.653  0.00  0.00    -0.238 NA
ATOM     56  H   ASN A   1      17.712  -1.440  39.964  0.00  0.00    +0.142 HD
ENDBRANCH  54  55
BRANCH  54  57
ATOM     57  CB  ASN A   1      20.047  -0.570  39.194  0.00  0.00    +0.111 C 
BRANCH  57  58
ATOM     58  CG  ASN A   1      20.921  -1.694  39.819  0.00  0.00    +0.221 C 
ATOM     59  OD1 ASN A   1      21.341  -1.634  40.974  0.00  0.00    -0.275 OA
ATOM     60  ND2 ASN A   1      21.229  -2.701  39.012  0.00  0.00    -0.329 N 
ATOM     61 HD21 ASN A   1      21.842  -3.470  39.350  0.00  0.00    +0.145 HD
ATOM     62 HD22 ASN A   1      20.857  -2.722  38.041  0.00  0.00    +0.145 HD
ENDBRANCH  57  58
ENDBRANCH  54  57
ENDBRANCH  50  54
ENDBRANCH  49  51
BRANCH  49  63
ATOM     63  CB  VAL A   2      18.147   4.567  40.965  0.00  0.00    +0.027 C 
ATOM     64  CG2 VAL A   2      19.136   4.749  42.148  0.00  0.00    +0.002 C 
ATOM     65  CG1 VAL A   2      16.936   3.763  41.422  0.00  0.00    +0.002 C 
ENDBRANCH  49  63
ENDBRANCH  45  49
ENDBRANCH  43  47
ENDBRANCH  39  43
ENDBRANCH  38  40
BRANCH  38  66
ATOM     66  CB  ILE A   4      21.910   9.725  41.611  0.00  0.00    +0.027 C 
ATOM     67  CG2 ILE A   4      21.793  11.010  42.439  0.00  0.00    +0.002 C 
BRANCH  66  68
ATOM     68  CG1 ILE A   4      21.294   8.511  42.317  0.00  0.00    +0.002 C 
ATOM     69  CD1 ILE A   4      21.962   8.165  43.666  0.00  0.00    +0.000 C 
ENDBRANCH  66  68
ENDBRANCH  38  66
ENDBRANCH   1  38
TORSDOF 31
REMARK  Name = ../refined-set-2016/2o0u/2o0u_pocket.pdb
REMARK  215 active torsions:
REMARK  status: ('A' for Active; 'I' for Inactive)
REMARK    1  A    between atoms: _1  and  _3
REMARK    2  A    between atoms: _3  and  _4
REMARK    3  A    between atoms: _3  and  _6
REMARK    4  A    between atoms: _6  and  _7
REMARK    5  A    between atoms: _7  and  _8
REMARK    6  A    between atoms: _8  and  _9
REMARK    7  A    between atoms: _9  and  _10
REMARK    8  A    between atoms: _15  and  _16
REMARK    9  A    between atoms: _21  and  _23
REMARK   10  A    between atoms: _23  and  _24
REMARK   11  A    between atoms: _23  and  _26
REMARK   12  A    between atoms: _26  and  _27
REMARK   13  A    between atoms: _30  and  _32
REMARK   14  A    between atoms: _32  and  _33
REMARK   15  A    between atoms: _35  and  _37
REMARK   16  A    between atoms: _37  and  _38
REMARK   17  A    between atoms: _37  and  _40
REMARK   18  A    between atoms: _40  and  _41
REMARK   19  A    between atoms: _43  and  _45
REMARK   20  A    between atoms: _45  and  _46
REMARK   21  A    between atoms: _48  and  _50
REMARK   22  A    between atoms: _50  and  _51
REMARK   23  A    between atoms: _50  and  _53
REMARK   24  A    between atoms: _53  and  _54
REMARK   25  A    between atoms: _54  and  _55
REMARK   26  A    between atoms: _60  and  _62
REMARK   27  A    between atoms: _62  and  _63
REMARK   28  A    between atoms: _65  and  _67
REMARK   29  A    between atoms: _67  and  _68
REMARK   30  A    between atoms: _67  and  _70
REMARK   31  A    between atoms: _70  and  _71
REMARK   32  A    between atoms: _74  and  _76
REMARK   33  A    between atoms: _76  and  _77
REMARK   34  A    between atoms: _76  and  _79
REMARK   35  A    between atoms: _82  and  _84
REMARK   36  A    between atoms: _84  and  _85
REMARK   37  A    between atoms: _84  and  _87
REMARK   38  A    between atoms: _89  and  _91
REMARK   39  A    between atoms: _91  and  _92
REMARK   40  A    between atoms: _95  and  _97
REMARK   41  A    between atoms: _97  and  _98
REMARK   42  A    between atoms: _101  and  _103
REMARK   43  A    between atoms: _103  and  _104
REMARK   44  A    between atoms: _103  and  _106
REMARK   45  A    between atoms: _106  and  _107
REMARK   46  A    between atoms: _112  and  _114
REMARK   47  A    between atoms: _114  and  _115
REMARK   48  A    between atoms: _114  and  _117
REMARK   49  A    between atoms: _120  and  _122
REMARK   50  A    between atoms: _122  and  _123
REMARK   51  A    between atoms: _126  and  _128
REMARK   52  A    between atoms: _128  and  _129
REMARK   53  A    between atoms: _128  and  _131
REMARK   54  A    between atoms: _131  and  _132
REMARK   55  A    between atoms: _135  and  _137
REMARK   56  A    between atoms: _137  and  _138
REMARK   57  A    between atoms: _137  and  _140
REMARK   58  A    between atoms: _140  and  _141
REMARK   59  A    between atoms: _141  and  _142
REMARK   60  A    between atoms: _142  and  _143
REMARK   61  A    between atoms: _143  and  _144
REMARK   62  A    between atoms: _148  and  _150
REMARK   63  A    between atoms: _150  and  _151
REMARK   64  A    between atoms: _150  and  _153
REMARK   65  A    between atoms: _153  and  _154
REMARK   66  A    between atoms: _154  and  _155
REMARK   67  A    between atoms: _155  and  _156
REMARK   68  A    between atoms: _156  and  _157
REMARK   69  A    between atoms: _161  and  _163
REMARK   70  A    between atoms: _163  and  _164
REMARK   71  A    between atoms: _163  and  _166
REMARK   72  A    between atoms: _166  and  _167
REMARK   73  A    between atoms: _170  and  _172
REMARK   74  A    between atoms: _172  and  _173
REMARK   75  A    between atoms: _172  and  _175
REMARK   76  A    between atoms: _175  and  _176
REMARK   77  A    between atoms: _176  and  _177
REMARK   78  A    between atoms: _177  and  _178
REMARK   79  A    between atoms: _187  and  _189
REMARK   80  A    between atoms: _189  and  _190
REMARK   81  A    between atoms: _189  and  _192
REMARK   82  A    between atoms: _192  and  _193
REMARK   83  A    between atoms: _193  and  _194
REMARK   84  A    between atoms: _197  and  _199
REMARK   85  A    between atoms: _199  and  _200
REMARK   86  A    between atoms: _199  and  _202
REMARK   87  A    between atoms: _202  and  _203
REMARK   88  A    between atoms: _206  and  _208
REMARK   89  A    between atoms: _208  and  _209
REMARK   90  A    between atoms: _208  and  _211
REMARK   91  A    between atoms: _211  and  _212
REMARK   92  A    between atoms: _212  and  _213
REMARK   93  A    between atoms: _215  and  _217
REMARK   94  A    between atoms: _217  and  _218
REMARK   95  A    between atoms: _217  and  _220
REMARK   96  A    between atoms: _220  and  _221
REMARK   97  A    between atoms: _224  and  _226
REMARK   98  A    between atoms: _226  and  _227
REMARK   99  A    between atoms: _226  and  _229
REMARK  100  A    between atoms: _229  and  _230
REMARK  101  A    between atoms: _232  and  _234
REMARK  102  A    between atoms: _234  and  _235
REMARK  103  A    between atoms: _234  and  _237
REMARK  104  A    between atoms: _237  and  _238
REMARK  105  A    between atoms: _241  and  _243
REMARK  106  A    between atoms: _243  and  _244
REMARK  107  A    between atoms: _243  and  _246
REMARK  108  A    between atoms: _246  and  _247
REMARK  109  A    between atoms: _250  and  _252
REMARK  110  A    between atoms: _252  and  _253
REMARK  111  A    between atoms: _252  and  _255
REMARK  112  A    between atoms: _255  and  _256
REMARK  113  A    between atoms: _261  and  _263
REMARK  114  A    between atoms: _263  and  _264
REMARK  115  A    between atoms: _263  and  _266
REMARK  116  A    between atoms: _269  and  _271
REMARK  117  A    between atoms: _271  and  _272
REMARK  118  A    between atoms: _271  and  _274
REMARK  119  A    between atoms: _274  and  _275
REMARK  120  A    between atoms: _280  and  _281
REMARK  121  A    between atoms: _283  and  _285
REMARK  122  A    between atoms: _285  and  _286
REMARK  123  A    between atoms: _285  and  _288
REMARK  124  A    between atoms: _288  and  _289
REMARK  125  A    between atoms: _292  and  _294
REMARK  126  A    between atoms: _294  and  _295
REMARK  127  A    between atoms: _294  and  _297
REMARK  128  A    between atoms: _300  and  _302
REMARK  129  A    between atoms: _302  and  _303
REMARK  130  A    between atoms: _302  and  _305
REMARK  131  A    between atoms: _305  and  _306
REMARK  132  A    between atoms: _306  and  _307
REMARK  133  A    between atoms: _309  and  _311
REMARK  134  A    between atoms: _311  and  _312
REMARK  135  A    between atoms: _311  and  _314
REMARK  136  A    between atoms: _314  and  _315
REMARK  137  A    between atoms: _315  and  _316
REMARK  138  A    between atoms: _319  and  _321
REMARK  139  A    between atoms: _321  and  _322
REMARK  140  A    between atoms: _321  and  _324
REMARK  141  A    between atoms: _324  and  _325
REMARK  142  A    between atoms: _328  and  _330
REMARK  143  A    between atoms: _330  and  _331
REMARK  144  A    between atoms: _330  and  _333
REMARK  145  A    between atoms: _333  and  _334
REMARK  146  A    between atoms: _334  and  _335
REMARK  147  A    between atoms: _337  and  _339
REMARK  148  A    between atoms: _339  and  _340
REMARK  149  A    between atoms: _339  and  _342
REMARK  150  A    between atoms: _342  and  _343
REMARK  151  A    between atoms: _346  and  _348
REMARK  152  A    between atoms: _348  and  _349
REMARK  153  A    between atoms: _352  and  _354
REMARK  154  A    between atoms: _354  and  _355
REMARK  155  A    between atoms: _354  and  _357
REMARK  156  A    between atoms: _357  and  _358
REMARK  157  A    between atoms: _363  and  _365
REMARK  158  A    between atoms: _365  and  _366
REMARK  159  A    between atoms: _365  and  _368
REMARK  160  A    between atoms: _368  and  _369
REMARK  161  A    between atoms: _372  and  _374
REMARK  162  A    between atoms: _374  and  _375
REMARK  163  A    between atoms: _374  and  _377
REMARK  164  A    between atoms: _379  and  _381
REMARK  165  A    between atoms: _381  and  _382
REMARK  166  A    between atoms: _381  and  _384
REMARK  167  A    between atoms: _384  and  _385
REMARK  168  A    between atoms: _385  and  _386
REMARK  169  A    between atoms: _391  and  _393
REMARK  170  A    between atoms: _393  and  _394
REMARK  171  A    between atoms: _393  and  _396
REMARK  172  A    between atoms: _396  and  _397
REMARK  173  A    between atoms: _397  and  _398
REMARK  174  A    between atoms: _404  and  _405
REMARK  175  A    between atoms: _410  and  _412
REMARK  176  A    between atoms: _412  and  _413
REMARK  177  A    between atoms: _412  and  _415
REMARK  178  A    between atoms: _415  and  _416
REMARK  179  A    between atoms: _418  and  _420
REMARK  180  A    between atoms: _420  and  _421
REMARK  181  A    between atoms: _420  and  _423
REMARK  182  A    between atoms: _423  and  _424
REMARK  183  A    between atoms: _429  and  _431
REMARK  184  A    between atoms: _431  and  _432
REMARK  185  A    between atoms: _431  and  _434
REMARK  186  A    between atoms: _434  and  _435
REMARK  187  A    between atoms: _438  and  _440
REMARK  188  A    between atoms: _440  and  _441
REMARK  189  A    between atoms: _440  and  _443
REMARK  190  A    between atoms: _446  and  _448
REMARK  191  A    between atoms: _448  and  _449
REMARK  192  A    between atoms: _448  and  _451
REMARK  193  A    between atoms: _454  and  _456
REMARK  194  A    between atoms: _456  and  _457
REMARK  195  A    between atoms: _456  and  _459
REMARK  196  A    between atoms: _459  and  _460
REMARK  197  A    between atoms: _460  and  _461
REMARK  198  A    between atoms: _461  and  _462
REMARK  199  A    between atoms: _462  and  _463
REMARK  200  A    between atoms: _467  and  _469
REMARK  201  A    between atoms: _469  and  _470
REMARK  202  A    between atoms: _469  and  _472
REMARK  203  A    between atoms: _472  and  _473
REMARK  204  A    between atoms: _476  and  _478
REMARK  205  A    between atoms: _478  and  _479
REMARK  206  A    between atoms: _478  and  _481
REMARK  207  A    between atoms: _481  and  _482
REMARK  208  A    between atoms: _485  and  _487
REMARK  209  A    between atoms: _487  and  _488
REMARK  210  A    between atoms: _487  and  _490
REMARK  211  A    between atoms: _490  and  _491
REMARK  212  A    between atoms: _494  and  _496
REMARK  213  A    between atoms: _496  and  _497
REMARK  214  A    between atoms: _496  and  _499
REMARK  215  A    between atoms: _499  and  _500
REMARK                            x       y       z     vdW  Elec       q    Type
REMARK                         _______ _______ _______ _____ _____    ______ ____
ROOT
ATOM      1  NE  ARG A   1      18.067  22.333  29.596  0.00  0.00    -0.265 N 
ATOM      2  HE  ARG A   1      17.918  21.499  30.199  0.00  0.00    +0.259 HD
ATOM      3  CZ  ARG A   1      18.023  22.170  28.274  0.00  0.00    +0.342 C 
ATOM      4  NH2 ARG A   1      17.806  20.967  27.765  0.00  0.00    -0.292 N 
ATOM      5 HH21 ARG A   1      17.670  20.152  28.397  0.00  0.00    +0.255 HD
ATOM      6 HH22 ARG A   1      17.771  20.837  26.734  0.00  0.00    +0.255 HD
ATOM      7  NH1 ARG A   1      18.201  23.210  27.458  0.00  0.00    -0.292 N 
ATOM      8 HH11 ARG A   1      18.376  24.156  27.852  0.00  0.00    +0.255 HD
ATOM      9 HH12 ARG A   1      18.165  23.074  26.427  0.00  0.00    +0.255 HD
ENDROOT
BRANCH   1  10
ATOM     10  CD  ARG A   1      18.315  23.627  30.250  0.00  0.00    +0.174 C 
BRANCH  10  11
ATOM     11  CG  ARG A   1      18.405  23.535  31.741  0.00  0.00    +0.045 C 
BRANCH  11  12
ATOM     12  CB  ARG A   1      18.334  24.923  32.335  0.00  0.00    +0.029 C 
BRANCH  12  13
ATOM     13  CA  ARG A   1      16.946  25.324  32.842  0.00  0.00    +0.133 C 
BRANCH  13  14
ATOM     14  N   ARG A   1      16.941  26.748  33.191  0.00  0.00    -0.239 NA
ATOM     15  H   ARG A   1      17.800  27.298  32.987  0.00  0.00    +0.142 HD
ENDBRANCH  13  14
BRANCH  13  16
ATOM     16  C   ARG A   1      16.597  24.393  33.989  0.00  0.00    +0.224 C 
ATOM     17  O   ARG A   1      15.750  23.535  33.826  0.00  0.00    -0.287 OA
ENDBRANCH  13  16
ENDBRANCH  12  13
ENDBRANCH  11  12
ENDBRANCH  10  11
ENDBRANCH   1  10
TORSDOF 6
REMARK  Name = ../refined-set-2016/2o0u/2o0u_pocket.pdb
REMARK  215 active torsions:
REMARK  status: ('A' for Active; 'I' for Inactive)
REMARK    1  A    between atoms: _1  and  _3
REMARK    2  A    between atoms: _3  and  _4
REMARK    3  A    between atoms: _3  and  _6
REMARK    4  A    between atoms: _6  and  _7
REMARK    5  A    between atoms: _7  and  _8
REMARK    6  A    between atoms: _8  and  _9
REMARK    7  A    between atoms: _9  and  _10
REMARK    8  A    between atoms: _15  and  _16
REMARK    9  A    between atoms: _21  and  _23
REMARK   10  A    between atoms: _23  and  _24
REMARK   11  A    between atoms: _23  and  _26
REMARK   12  A    between atoms: _26  and  _27
REMARK   13  A    between atoms: _30  and  _32
REMARK   14  A    between atoms: _32  and  _33
REMARK   15  A    between atoms: _35  and  _37
REMARK   16  A    between atoms: _37  and  _38
REMARK   17  A    between atoms: _37  and  _40
REMARK   18  A    between atoms: _40  and  _41
REMARK   19  A    between atoms: _43  and  _45
REMARK   20  A    between atoms: _45  and  _46
REMARK   21  A    between atoms: _48  and  _50
REMARK   22  A    between atoms: _50  and  _51
REMARK   23  A    between atoms: _50  and  _53
REMARK   24  A    between atoms: _53  and  _54
REMARK   25  A    between atoms: _54  and  _55
REMARK   26  A    between atoms: _60  and  _62
REMARK   27  A    between atoms: _62  and  _63
REMARK   28  A    between atoms: _65  and  _67
REMARK   29  A    between atoms: _67  and  _68
REMARK   30  A    between atoms: _67  and  _70
REMARK   31  A    between atoms: _70  and  _71
REMARK   32  A    between atoms: _74  and  _76
REMARK   33  A    between atoms: _76  and  _77
REMARK   34  A    between atoms: _76  and  _79
REMARK   35  A    between atoms: _82  and  _84
REMARK   36  A    between atoms: _84  and  _85
REMARK   37  A    between atoms: _84  and  _87
REMARK   38  A    between atoms: _89  and  _91
REMARK   39  A    between atoms: _91  and  _92
REMARK   40  A    between atoms: _95  and  _97
REMARK   41  A    between atoms: _97  and  _98
REMARK   42  A    between atoms: _101  and  _103
REMARK   43  A    between atoms: _103  and  _104
REMARK   44  A    between atoms: _103  and  _106
REMARK   45  A    between atoms: _106  and  _107
REMARK   46  A    between atoms: _112  and  _114
REMARK   47  A    between atoms: _114  and  _115
REMARK   48  A    between atoms: _114  and  _117
REMARK   49  A    between atoms: _120  and  _122
REMARK   50  A    between atoms: _122  and  _123
REMARK   51  A    between atoms: _126  and  _128
REMARK   52  A    between atoms: _128  and  _129
REMARK   53  A    between atoms: _128  and  _131
REMARK   54  A    between atoms: _131  and  _132
REMARK   55  A    between atoms: _135  and  _137
REMARK   56  A    between atoms: _137  and  _138
REMARK   57  A    between atoms: _137  and  _140
REMARK   58  A    between atoms: _140  and  _141
REMARK   59  A    between atoms: _141  and  _142
REMARK   60  A    between atoms: _142  and  _143
REMARK   61  A    between atoms: _143  and  _144
REMARK   62  A    between atoms: _148  and  _150
REMARK   63  A    between atoms: _150  and  _151
REMARK   64  A    between atoms: _150  and  _153
REMARK   65  A    between atoms: _153  and  _154
REMARK   66  A    between atoms: _154  and  _155
REMARK   67  A    between atoms: _155  and  _156
REMARK   68  A    between atoms: _156  and  _157
REMARK   69  A    between atoms: _161  and  _163
REMARK   70  A    between atoms: _163  and  _164
REMARK   71  A    between atoms: _163  and  _166
REMARK   72  A    between atoms: _166  and  _167
REMARK   73  A    between atoms: _170  and  _172
REMARK   74  A    between atoms: _172  and  _173
REMARK   75  A    between atoms: _172  and  _175
REMARK   76  A    between atoms: _175  and  _176
REMARK   77  A    between atoms: _176  and  _177
REMARK   78  A    between atoms: _177  and  _178
REMARK   79  A    between atoms: _187  and  _189
REMARK   80  A    between atoms: _189  and  _190
REMARK   81  A    between atoms: _189  and  _192
REMARK   82  A    between atoms: _192  and  _193
REMARK   83  A    between atoms: _193  and  _194
REMARK   84  A    between atoms: _197  and  _199
REMARK   85  A    between atoms: _199  and  _200
REMARK   86  A    between atoms: _199  and  _202
REMARK   87  A    between atoms: _202  and  _203
REMARK   88  A    between atoms: _206  and  _208
REMARK   89  A    between atoms: _208  and  _209
REMARK   90  A    between atoms: _208  and  _211
REMARK   91  A    between atoms: _211  and  _212
REMARK   92  A    between atoms: _212  and  _213
REMARK   93  A    between atoms: _215  and  _217
REMARK   94  A    between atoms: _217  and  _218
REMARK   95  A    between atoms: _217  and  _220
REMARK   96  A    between atoms: _220  and  _221
REMARK   97  A    between atoms: _224  and  _226
REMARK   98  A    between atoms: _226  and  _227
REMARK   99  A    between atoms: _226  and  _229
REMARK  100  A    between atoms: _229  and  _230
REMARK  101  A    between atoms: _232  and  _234
REMARK  102  A    between atoms: _234  and  _235
REMARK  103  A    between atoms: _234  and  _237
REMARK  104  A    between atoms: _237  and  _238
REMARK  105  A    between atoms: _241  and  _243
REMARK  106  A    between atoms: _243  and  _244
REMARK  107  A    between atoms: _243  and  _246
REMARK  108  A    between atoms: _246  and  _247
REMARK  109  A    between atoms: _250  and  _252
REMARK  110  A    between atoms: _252  and  _253
REMARK  111  A    between atoms: _252  and  _255
REMARK  112  A    between atoms: _255  and  _256
REMARK  113  A    between atoms: _261  and  _263
REMARK  114  A    between atoms: _263  and  _264
REMARK  115  A    between atoms: _263  and  _266
REMARK  116  A    between atoms: _269  and  _271
REMARK  117  A    between atoms: _271  and  _272
REMARK  118  A    between atoms: _271  and  _274
REMARK  119  A    between atoms: _274  and  _275
REMARK  120  A    between atoms: _280  and  _281
REMARK  121  A    between atoms: _283  and  _285
REMARK  122  A    between atoms: _285  and  _286
REMARK  123  A    between atoms: _285  and  _288
REMARK  124  A    between atoms: _288  and  _289
REMARK  125  A    between atoms: _292  and  _294
REMARK  126  A    between atoms: _294  and  _295
REMARK  127  A    between atoms: _294  and  _297
REMARK  128  A    between atoms: _300  and  _302
REMARK  129  A    between atoms: _302  and  _303
REMARK  130  A    between atoms: _302  and  _305
REMARK  131  A    between atoms: _305  and  _306
REMARK  132  A    between atoms: _306  and  _307
REMARK  133  A    between atoms: _309  and  _311
REMARK  134  A    between atoms: _311  and  _312
REMARK  135  A    between atoms: _311  and  _314
REMARK  136  A    between atoms: _314  and  _315
REMARK  137  A    between atoms: _315  and  _316
REMARK  138  A    between atoms: _319  and  _321
REMARK  139  A    between atoms: _321  and  _322
REMARK  140  A    between atoms: _321  and  _324
REMARK  141  A    between atoms: _324  and  _325
REMARK  142  A    between atoms: _328  and  _330
REMARK  143  A    between atoms: _330  and  _331
REMARK  144  A    between atoms: _330  and  _333
REMARK  145  A    between atoms: _333  and  _334
REMARK  146  A    between atoms: _334  and  _335
REMARK  147  A    between atoms: _337  and  _339
REMARK  148  A    between atoms: _339  and  _340
REMARK  149  A    between atoms: _339  and  _342
REMARK  150  A    between atoms: _342  and  _343
REMARK  151  A    between atoms: _346  and  _348
REMARK  152  A    between atoms: _348  and  _349
REMARK  153  A    between atoms: _352  and  _354
REMARK  154  A    between atoms: _354  and  _355
REMARK  155  A    between atoms: _354  and  _357
REMARK  156  A    between atoms: _357  and  _358
REMARK  157  A    between atoms: _363  and  _365
REMARK  158  A    between atoms: _365  and  _366
REMARK  159  A    between atoms: _365  and  _368
REMARK  160  A    between atoms: _368  and  _369
REMARK  161  A    between atoms: _372  and  _374
REMARK  162  A    between atoms: _374  and  _375
REMARK  163  A    between atoms: _374  and  _377
REMARK  164  A    between atoms: _379  and  _381
REMARK  165  A    between atoms: _381  and  _382
REMARK  166  A    between atoms: _381  and  _384
REMARK  167  A    between atoms: _384  and  _385
REMARK  168  A    between atoms: _385  and  _386
REMARK  169  A    between atoms: _391  and  _393
REMARK  170  A    between atoms: _393  and  _394
REMARK  171  A    between atoms: _393  and  _396
REMARK  172  A    between atoms: _396  and  _397
REMARK  173  A    between atoms: _397  and  _398
REMARK  174  A    between atoms: _404  and  _405
REMARK  175  A    between atoms: _410  and  _412
REMARK  176  A    between atoms: _412  and  _413
REMARK  177  A    between atoms: _412  and  _415
REMARK  178  A    between atoms: _415  and  _416
REMARK  179  A    between atoms: _418  and  _420
REMARK  180  A    between atoms: _420  and  _421
REMARK  181  A    between atoms: _420  and  _423
REMARK  182  A    between atoms: _423  and  _424
REMARK  183  A    between atoms: _429  and  _431
REMARK  184  A    between atoms: _431  and  _432
REMARK  185  A    between atoms: _431  and  _434
REMARK  186  A    between atoms: _434  and  _435
REMARK  187  A    between atoms: _438  and  _440
REMARK  188  A    between atoms: _440  and  _441
REMARK  189  A    between atoms: _440  and  _443
REMARK  190  A    between atoms: _446  and  _448
REMARK  191  A    between atoms: _448  and  _449
REMARK  192  A    between atoms: _448  and  _451
REMARK  193  A    between atoms: _454  and  _456
REMARK  194  A    between atoms: _456  and  _457
REMARK  195  A    between atoms: _456  and  _459
REMARK  196  A    between atoms: _459  and  _460
REMARK  197  A    between atoms: _460  and  _461
REMARK  198  A    between atoms: _461  and  _462
REMARK  199  A    between atoms: _462  and  _463
REMARK  200  A    between atoms: _467  and  _469
REMARK  201  A    between atoms: _469  and  _470
REMARK  202  A    between atoms: _469  and  _472
REMARK  203  A    between atoms: _472  and  _473
REMARK  204  A    between atoms: _476  and  _478
REMARK  205  A    between atoms: _478  and  _479
REMARK  206  A    between atoms: _478  and  _481
REMARK  207  A    between atoms: _481  and  _482
REMARK  208  A    between atoms: _485  and  _487
REMARK  209  A    between atoms: _487  and  _488
REMARK  210  A    between atoms: _487  and  _490
REMARK  211  A    between atoms: _490  and  _491
REMARK  212  A    between atoms: _494  and  _496
REMARK  213  A    between atoms: _496  and  _497
REMARK  214  A    between atoms: _496  and  _499
REMARK  215  A    between atoms: _499  and  _500
REMARK                            x       y       z     vdW  Elec       q    Type
REMARK                         _______ _______ _______ _____ _____    ______ ____
ROOT
ATOM      1  C   GLU A   1      12.594  20.082  35.239  0.00  0.00    +0.238 C 
ATOM      2  N   LEU A   2      12.674  20.716  36.403  0.00  0.00    -0.298 N 
ATOM      3  H   LEU A   2      13.254  21.575  36.486  0.00  0.00    +0.150 HD
ATOM      4  O   GLU A   1      11.979  19.049  35.120  0.00  0.00    -0.274 OA
ENDROOT
BRANCH   1   5
ATOM      5  CA  GLU A   1      13.226  20.732  34.013  0.00  0.00    +0.145 C 
BRANCH   5   6
ATOM      6  N   GLU A   1      13.138  22.185  34.166  0.00  0.00    -0.238 NA
ATOM      7  H   GLU A   1      13.984  22.727  34.434  0.00  0.00    +0.142 HD
ENDBRANCH   5   6
BRANCH   5   8
ATOM      8  CB  GLU A   1      14.679  20.250  33.729  0.00  0.00    +0.038 C 
BRANCH   8   9
ATOM      9  CG  GLU A   1      15.384  21.031  32.550  0.00  0.00    +0.116 C 
BRANCH   9  10
ATOM     10  CD  GLU A   1      15.393  20.380  31.147  0.00  0.00    +0.365 C 
ATOM     11  OE2 GLU A   1      15.418  19.155  31.041  0.00  0.00    -0.246 OA
ATOM     12  OE1 GLU A   1      15.415  21.104  30.118  0.00  0.00    -0.246 OA
ENDBRANCH   9  10
ENDBRANCH   8   9
ENDBRANCH   5   8
ENDBRANCH   1   5
BRANCH   2  13
ATOM     13  CA  LEU A   2      11.939  20.204  37.587  0.00  0.00    +0.137 C 
BRANCH  13  14
ATOM     14  C   LEU A   2      10.444  20.365  37.466  0.00  0.00    +0.227 C 
ATOM     15  O   LEU A   2       9.706  19.477  37.832  0.00  0.00    -0.286 OA
ENDBRANCH  13  14
BRANCH  13  16
ATOM     16  CB  LEU A   2      12.367  20.898  38.880  0.00  0.00    +0.028 C 
BRANCH  16  17
ATOM     17  CG  LEU A   2      13.622  20.368  39.553  0.00  0.00    +0.002 C 
ATOM     18  CD2 LEU A   2      14.033  21.305  40.699  0.00  0.00    +0.000 C 
ATOM     19  CD1 LEU A   2      13.423  18.907  40.007  0.00  0.00    +0.000 C 
ENDBRANCH  16  17
ENDBRANCH  13  16
ENDBRANCH   2  13
TORSDOF 9
REMARK  Name = ../refined-set-2016/2o0u/2o0u_pocket.pdb
REMARK  215 active torsions:
REMARK  status: ('A' for Active; 'I' for Inactive)
REMARK    1  A    between atoms: _1  and  _3
REMARK    2  A    between atoms: _3  and  _4
REMARK    3  A    between atoms: _3  and  _6
REMARK    4  A    between atoms: _6  and  _7
REMARK    5  A    between atoms: _7  and  _8
REMARK    6  A    between atoms: _8  and  _9
REMARK    7  A    between atoms: _9  and  _10
REMARK    8  A    between atoms: _15  and  _16
REMARK    9  A    between atoms: _21  and  _23
REMARK   10  A    between atoms: _23  and  _24
REMARK   11  A    between atoms: _23  and  _26
REMARK   12  A    between atoms: _26  and  _27
REMARK   13  A    between atoms: _30  and  _32
REMARK   14  A    between atoms: _32  and  _33
REMARK   15  A    between atoms: _35  and  _37
REMARK   16  A    between atoms: _37  and  _38
REMARK   17  A    between atoms: _37  and  _40
REMARK   18  A    between atoms: _40  and  _41
REMARK   19  A    between atoms: _43  and  _45
REMARK   20  A    between atoms: _45  and  _46
REMARK   21  A    between atoms: _48  and  _50
REMARK   22  A    between atoms: _50  and  _51
REMARK   23  A    between atoms: _50  and  _53
REMARK   24  A    between atoms: _53  and  _54
REMARK   25  A    between atoms: _54  and  _55
REMARK   26  A    between atoms: _60  and  _62
REMARK   27  A    between atoms: _62  and  _63
REMARK   28  A    between atoms: _65  and  _67
REMARK   29  A    between atoms: _67  and  _68
REMARK   30  A    between atoms: _67  and  _70
REMARK   31  A    between atoms: _70  and  _71
REMARK   32  A    between atoms: _74  and  _76
REMARK   33  A    between atoms: _76  and  _77
REMARK   34  A    between atoms: _76  and  _79
REMARK   35  A    between atoms: _82  and  _84
REMARK   36  A    between atoms: _84  and  _85
REMARK   37  A    between atoms: _84  and  _87
REMARK   38  A    between atoms: _89  and  _91
REMARK   39  A    between atoms: _91  and  _92
REMARK   40  A    between atoms: _95  and  _97
REMARK   41  A    between atoms: _97  and  _98
REMARK   42  A    between atoms: _101  and  _103
REMARK   43  A    between atoms: _103  and  _104
REMARK   44  A    between atoms: _103  and  _106
REMARK   45  A    between atoms: _106  and  _107
REMARK   46  A    between atoms: _112  and  _114
REMARK   47  A    between atoms: _114  and  _115
REMARK   48  A    between atoms: _114  and  _117
REMARK   49  A    between atoms: _120  and  _122
REMARK   50  A    between atoms: _122  and  _123
REMARK   51  A    between atoms: _126  and  _128
REMARK   52  A    between atoms: _128  and  _129
REMARK   53  A    between atoms: _128  and  _131
REMARK   54  A    between atoms: _131  and  _132
REMARK   55  A    between atoms: _135  and  _137
REMARK   56  A    between atoms: _137  and  _138
REMARK   57  A    between atoms: _137  and  _140
REMARK   58  A    between atoms: _140  and  _141
REMARK   59  A    between atoms: _141  and  _142
REMARK   60  A    between atoms: _142  and  _143
REMARK   61  A    between atoms: _143  and  _144
REMARK   62  A    between atoms: _148  and  _150
REMARK   63  A    between atoms: _150  and  _151
REMARK   64  A    between atoms: _150  and  _153
REMARK   65  A    between atoms: _153  and  _154
REMARK   66  A    between atoms: _154  and  _155
REMARK   67  A    between atoms: _155  and  _156
REMARK   68  A    between atoms: _156  and  _157
REMARK   69  A    between atoms: _161  and  _163
REMARK   70  A    between atoms: _163  and  _164
REMARK   71  A    between atoms: _163  and  _166
REMARK   72  A    between atoms: _166  and  _167
REMARK   73  A    between atoms: _170  and  _172
REMARK   74  A    between atoms: _172  and  _173
REMARK   75  A    between atoms: _172  and  _175
REMARK   76  A    between atoms: _175  and  _176
REMARK   77  A    between atoms: _176  and  _177
REMARK   78  A    between atoms: _177  and  _178
REMARK   79  A    between atoms: _187  and  _189
REMARK   80  A    between atoms: _189  and  _190
REMARK   81  A    between atoms: _189  and  _192
REMARK   82  A    between atoms: _192  and  _193
REMARK   83  A    between atoms: _193  and  _194
REMARK   84  A    between atoms: _197  and  _199
REMARK   85  A    between atoms: _199  and  _200
REMARK   86  A    between atoms: _199  and  _202
REMARK   87  A    between atoms: _202  and  _203
REMARK   88  A    between atoms: _206  and  _208
REMARK   89  A    between atoms: _208  and  _209
REMARK   90  A    between atoms: _208  and  _211
REMARK   91  A    between atoms: _211  and  _212
REMARK   92  A    between atoms: _212  and  _213
REMARK   93  A    between atoms: _215  and  _217
REMARK   94  A    between atoms: _217  and  _218
REMARK   95  A    between atoms: _217  and  _220
REMARK   96  A    between atoms: _220  and  _221
REMARK   97  A    between atoms: _224  and  _226
REMARK   98  A    between atoms: _226  and  _227
REMARK   99  A    between atoms: _226  and  _229
REMARK  100  A    between atoms: _229  and  _230
REMARK  101  A    between atoms: _232  and  _234
REMARK  102  A    between atoms: _234  and  _235
REMARK  103  A    between atoms: _234  and  _237
REMARK  104  A    between atoms: _237  and  _238
REMARK  105  A    between atoms: _241  and  _243
REMARK  106  A    between atoms: _243  and  _244
REMARK  107  A    between atoms: _243  and  _246
REMARK  108  A    between atoms: _246  and  _247
REMARK  109  A    between atoms: _250  and  _252
REMARK  110  A    between atoms: _252  and  _253
REMARK  111  A    between atoms: _252  and  _255
REMARK  112  A    between atoms: _255  and  _256
REMARK  113  A    between atoms: _261  and  _263
REMARK  114  A    between atoms: _263  and  _264
REMARK  115  A    between atoms: _263  and  _266
REMARK  116  A    between atoms: _269  and  _271
REMARK  117  A    between atoms: _271  and  _272
REMARK  118  A    between atoms: _271  and  _274
REMARK  119  A    between atoms: _274  and  _275
REMARK  120  A    between atoms: _280  and  _281
REMARK  121  A    between atoms: _283  and  _285
REMARK  122  A    between atoms: _285  and  _286
REMARK  123  A    between atoms: _285  and  _288
REMARK  124  A    between atoms: _288  and  _289
REMARK  125  A    between atoms: _292  and  _294
REMARK  126  A    between atoms: _294  and  _295
REMARK  127  A    between atoms: _294  and  _297
REMARK  128  A    between atoms: _300  and  _302
REMARK  129  A    between atoms: _302  and  _303
REMARK  130  A    between atoms: _302  and  _305
REMARK  131  A    between atoms: _305  and  _306
REMARK  132  A    between atoms: _306  and  _307
REMARK  133  A    between atoms: _309  and  _311
REMARK  134  A    between atoms: _311  and  _312
REMARK  135  A    between atoms: _311  and  _314
REMARK  136  A    between atoms: _314  and  _315
REMARK  137  A    between atoms: _315  and  _316
REMARK  138  A    between atoms: _319  and  _321
REMARK  139  A    between atoms: _321  and  _322
REMARK  140  A    between atoms: _321  and  _324
REMARK  141  A    between atoms: _324  and  _325
REMARK  142  A    between atoms: _328  and  _330
REMARK  143  A    between atoms: _330  and  _331
REMARK  144  A    between atoms: _330  and  _333
REMARK  145  A    between atoms: _333  and  _334
REMARK  146  A    between atoms: _334  and  _335
REMARK  147  A    between atoms: _337  and  _339
REMARK  148  A    between atoms: _339  and  _340
REMARK  149  A    between atoms: _339  and  _342
REMARK  150  A    between atoms: _342  and  _343
REMARK  151  A    between atoms: _346  and  _348
REMARK  152  A    between atoms: _348  and  _349
REMARK  153  A    between atoms: _352  and  _354
REMARK  154  A    between atoms: _354  and  _355
REMARK  155  A    between atoms: _354  and  _357
REMARK  156  A    between atoms: _357  and  _358
REMARK  157  A    between atoms: _363  and  _365
REMARK  158  A    between atoms: _365  and  _366
REMARK  159  A    between atoms: _365  and  _368
REMARK  160  A    between atoms: _368  and  _369
REMARK  161  A    between atoms: _372  and  _374
REMARK  162  A    between atoms: _374  and  _375
REMARK  163  A    between atoms: _374  and  _377
REMARK  164  A    between atoms: _379  and  _381
REMARK  165  A    between atoms: _381  and  _382
REMARK  166  A    between atoms: _381  and  _384
REMARK  167  A    between atoms: _384  and  _385
REMARK  168  A    between atoms: _385  and  _386
REMARK  169  A    between atoms: _391  and  _393
REMARK  170  A    between atoms: _393  and  _394
REMARK  171  A    between atoms: _393  and  _396
REMARK  172  A    between atoms: _396  and  _397
REMARK  173  A    between atoms: _397  and  _398
REMARK  174  A    between atoms: _404  and  _405
REMARK  175  A    between atoms: _410  and  _412
REMARK  176  A    between atoms: _412  and  _413
REMARK  177  A    between atoms: _412  and  _415
REMARK  178  A    between atoms: _415  and  _416
REMARK  179  A    between atoms: _418  and  _420
REMARK  180  A    between atoms: _420  and  _421
REMARK  181  A    between atoms: _420  and  _423
REMARK  182  A    between atoms: _423  and  _424
REMARK  183  A    between atoms: _429  and  _431
REMARK  184  A    between atoms: _431  and  _432
REMARK  185  A    between atoms: _431  and  _434
REMARK  186  A    between atoms: _434  and  _435
REMARK  187  A    between atoms: _438  and  _440
REMARK  188  A    between atoms: _440  and  _441
REMARK  189  A    between atoms: _440  and  _443
REMARK  190  A    between atoms: _446  and  _448
REMARK  191  A    between atoms: _448  and  _449
REMARK  192  A    between atoms: _448  and  _451
REMARK  193  A    between atoms: _454  and  _456
REMARK  194  A    between atoms: _456  and  _457
REMARK  195  A    between atoms: _456  and  _459
REMARK  196  A    between atoms: _459  and  _460
REMARK  197  A    between atoms: _460  and  _461
REMARK  198  A    between atoms: _461  and  _462
REMARK  199  A    between atoms: _462  and  _463
REMARK  200  A    between atoms: _467  and  _469
REMARK  201  A    between atoms: _469  and  _470
REMARK  202  A    between atoms: _469  and  _472
REMARK  203  A    between atoms: _472  and  _473
REMARK  204  A    between atoms: _476  and  _478
REMARK  205  A    between atoms: _478  and  _479
REMARK  206  A    between atoms: _478  and  _481
REMARK  207  A    between atoms: _481  and  _482
REMARK  208  A    between atoms: _485  and  _487
REMARK  209  A    between atoms: _487  and  _488
REMARK  210  A    between atoms: _487  and  _490
REMARK  211  A    between atoms: _490  and  _491
REMARK  212  A    between atoms: _494  and  _496
REMARK  213  A    between atoms: _496  and  _497
REMARK  214  A    between atoms: _496  and  _499
REMARK  215  A    between atoms: _499  and  _500
REMARK                            x       y       z     vdW  Elec       q    Type
REMARK                         _______ _______ _______ _____ _____    ______ ____
ROOT
ATOM      1  CA  MET A   1       9.273  16.464  34.829  0.00  0.00    +0.134 C 
ENDROOT
BRANCH   1   2
ATOM      2  N   MET A   1       9.197  17.884  34.532  0.00  0.00    -0.239 NA
ATOM      3  H   MET A   1       9.899  18.530  34.946  0.00  0.00    +0.142 HD
ENDBRANCH   1   2
BRANCH   1   4
ATOM      4  C   MET A   1       8.045  16.062  35.607  0.00  0.00    +0.224 C 
ATOM      5  O   MET A   1       7.208  15.317  35.092  0.00  0.00    -0.287 OA
ENDBRANCH   1   4
BRANCH   1   6
ATOM      6  CB  MET A   1      10.560  16.080  35.588  0.00  0.00    +0.037 C 
BRANCH   6   7
ATOM      7  CG  MET A   1      11.630  15.386  34.723  0.00  0.00    +0.059 C 
BRANCH   7   8
ATOM      8  SD  MET A   1      13.390  15.513  35.244  0.00  0.00    -0.139 S 
ATOM      9  CE  MET A   1      13.986  16.949  34.354  0.00  0.00    +0.069 C 
ENDBRANCH   7   8
ENDBRANCH   6   7
ENDBRANCH   1   6
TORSDOF 5
REMARK  Name = ../refined-set-2016/2o0u/2o0u_pocket.pdb
REMARK  215 active torsions:
REMARK  status: ('A' for Active; 'I' for Inactive)
REMARK    1  A    between atoms: _1  and  _3
REMARK    2  A    between atoms: _3  and  _4
REMARK    3  A    between atoms: _3  and  _6
REMARK    4  A    between atoms: _6  and  _7
REMARK    5  A    between atoms: _7  and  _8
REMARK    6  A    between atoms: _8  and  _9
REMARK    7  A    between atoms: _9  and  _10
REMARK    8  A    between atoms: _15  and  _16
REMARK    9  A    between atoms: _21  and  _23
REMARK   10  A    between atoms: _23  and  _24
REMARK   11  A    between atoms: _23  and  _26
REMARK   12  A    between atoms: _26  and  _27
REMARK   13  A    between atoms: _30  and  _32
REMARK   14  A    between atoms: _32  and  _33
REMARK   15  A    between atoms: _35  and  _37
REMARK   16  A    between atoms: _37  and  _38
REMARK   17  A    between atoms: _37  and  _40
REMARK   18  A    between atoms: _40  and  _41
REMARK   19  A    between atoms: _43  and  _45
REMARK   20  A    between atoms: _45  and  _46
REMARK   21  A    between atoms: _48  and  _50
REMARK   22  A    between atoms: _50  and  _51
REMARK   23  A    between atoms: _50  and  _53
REMARK   24  A    between atoms: _53  and  _54
REMARK   25  A    between atoms: _54  and  _55
REMARK   26  A    between atoms: _60  and  _62
REMARK   27  A    between atoms: _62  and  _63
REMARK   28  A    between atoms: _65  and  _67
REMARK   29  A    between atoms: _67  and  _68
REMARK   30  A    between atoms: _67  and  _70
REMARK   31  A    between atoms: _70  and  _71
REMARK   32  A    between atoms: _74  and  _76
REMARK   33  A    between atoms: _76  and  _77
REMARK   34  A    between atoms: _76  and  _79
REMARK   35  A    between atoms: _82  and  _84
REMARK   36  A    between atoms: _84  and  _85
REMARK   37  A    between atoms: _84  and  _87
REMARK   38  A    between atoms: _89  and  _91
REMARK   39  A    between atoms: _91  and  _92
REMARK   40  A    between atoms: _95  and  _97
REMARK   41  A    between atoms: _97  and  _98
REMARK   42  A    between atoms: _101  and  _103
REMARK   43  A    between atoms: _103  and  _104
REMARK   44  A    between atoms: _103  and  _106
REMARK   45  A    between atoms: _106  and  _107
REMARK   46  A    between atoms: _112  and  _114
REMARK   47  A    between atoms: _114  and  _115
REMARK   48  A    between atoms: _114  and  _117
REMARK   49  A    between atoms: _120  and  _122
REMARK   50  A    between atoms: _122  and  _123
REMARK   51  A    between atoms: _126  and  _128
REMARK   52  A    between atoms: _128  and  _129
REMARK   53  A    between atoms: _128  and  _131
REMARK   54  A    between atoms: _131  and  _132
REMARK   55  A    between atoms: _135  and  _137
REMARK   56  A    between atoms: _137  and  _138
REMARK   57  A    between atoms: _137  and  _140
REMARK   58  A    between atoms: _140  and  _141
REMARK   59  A    between atoms: _141  and  _142
REMARK   60  A    between atoms: _142  and  _143
REMARK   61  A    between atoms: _143  and  _144
REMARK   62  A    between atoms: _148  and  _150
REMARK   63  A    between atoms: _150  and  _151
REMARK   64  A    between atoms: _150  and  _153
REMARK   65  A    between atoms: _153  and  _154
REMARK   66  A    between atoms: _154  and  _155
REMARK   67  A    between atoms: _155  and  _156
REMARK   68  A    between atoms: _156  and  _157
REMARK   69  A    between atoms: _161  and  _163
REMARK   70  A    between atoms: _163  and  _164
REMARK   71  A    between atoms: _163  and  _166
REMARK   72  A    between atoms: _166  and  _167
REMARK   73  A    between atoms: _170  and  _172
REMARK   74  A    between atoms: _172  and  _173
REMARK   75  A    between atoms: _172  and  _175
REMARK   76  A    between atoms: _175  and  _176
REMARK   77  A    between atoms: _176  and  _177
REMARK   78  A    between atoms: _177  and  _178
REMARK   79  A    between atoms: _187  and  _189
REMARK   80  A    between atoms: _189  and  _190
REMARK   81  A    between atoms: _189  and  _192
REMARK   82  A    between atoms: _192  and  _193
REMARK   83  A    between atoms: _193  and  _194
REMARK   84  A    between atoms: _197  and  _199
REMARK   85  A    between atoms: _199  and  _200
REMARK   86  A    between atoms: _199  and  _202
REMARK   87  A    between atoms: _202  and  _203
REMARK   88  A    between atoms: _206  and  _208
REMARK   89  A    between atoms: _208  and  _209
REMARK   90  A    between atoms: _208  and  _211
REMARK   91  A    between atoms: _211  and  _212
REMARK   92  A    between atoms: _212  and  _213
REMARK   93  A    between atoms: _215  and  _217
REMARK   94  A    between atoms: _217  and  _218
REMARK   95  A    between atoms: _217  and  _220
REMARK   96  A    between atoms: _220  and  _221
REMARK   97  A    between atoms: _224  and  _226
REMARK   98  A    between atoms: _226  and  _227
REMARK   99  A    between atoms: _226  and  _229
REMARK  100  A    between atoms: _229  and  _230
REMARK  101  A    between atoms: _232  and  _234
REMARK  102  A    between atoms: _234  and  _235
REMARK  103  A    between atoms: _234  and  _237
REMARK  104  A    between atoms: _237  and  _238
REMARK  105  A    between atoms: _241  and  _243
REMARK  106  A    between atoms: _243  and  _244
REMARK  107  A    between atoms: _243  and  _246
REMARK  108  A    between atoms: _246  and  _247
REMARK  109  A    between atoms: _250  and  _252
REMARK  110  A    between atoms: _252  and  _253
REMARK  111  A    between atoms: _252  and  _255
REMARK  112  A    between atoms: _255  and  _256
REMARK  113  A    between atoms: _261  and  _263
REMARK  114  A    between atoms: _263  and  _264
REMARK  115  A    between atoms: _263  and  _266
REMARK  116  A    between atoms: _269  and  _271
REMARK  117  A    between atoms: _271  and  _272
REMARK  118  A    between atoms: _271  and  _274
REMARK  119  A    between atoms: _274  and  _275
REMARK  120  A    between atoms: _280  and  _281
REMARK  121  A    between atoms: _283  and  _285
REMARK  122  A    between atoms: _285  and  _286
REMARK  123  A    between atoms: _285  and  _288
REMARK  124  A    between atoms: _288  and  _289
REMARK  125  A    between atoms: _292  and  _294
REMARK  126  A    between atoms: _294  and  _295
REMARK  127  A    between atoms: _294  and  _297
REMARK  128  A    between atoms: _300  and  _302
REMARK  129  A    between atoms: _302  and  _303
REMARK  130  A    between atoms: _302  and  _305
REMARK  131  A    between atoms: _305  and  _306
REMARK  132  A    between atoms: _306  and  _307
REMARK  133  A    between atoms: _309  and  _311
REMARK  134  A    between atoms: _311  and  _312
REMARK  135  A    between atoms: _311  and  _314
REMARK  136  A    between atoms: _314  and  _315
REMARK  137  A    between atoms: _315  and  _316
REMARK  138  A    between atoms: _319  and  _321
REMARK  139  A    between atoms: _321  and  _322
REMARK  140  A    between atoms: _321  and  _324
REMARK  141  A    between atoms: _324  and  _325
REMARK  142  A    between atoms: _328  and  _330
REMARK  143  A    between atoms: _330  and  _331
REMARK  144  A    between atoms: _330  and  _333
REMARK  145  A    between atoms: _333  and  _334
REMARK  146  A    between atoms: _334  and  _335
REMARK  147  A    between atoms: _337  and  _339
REMARK  148  A    between atoms: _339  and  _340
REMARK  149  A    between atoms: _339  and  _342
REMARK  150  A    between atoms: _342  and  _343
REMARK  151  A    between atoms: _346  and  _348
REMARK  152  A    between atoms: _348  and  _349
REMARK  153  A    between atoms: _352  and  _354
REMARK  154  A    between atoms: _354  and  _355
REMARK  155  A    between atoms: _354  and  _357
REMARK  156  A    between atoms: _357  and  _358
REMARK  157  A    between atoms: _363  and  _365
REMARK  158  A    between atoms: _365  and  _366
REMARK  159  A    between atoms: _365  and  _368
REMARK  160  A    between atoms: _368  and  _369
REMARK  161  A    between atoms: _372  and  _374
REMARK  162  A    between atoms: _374  and  _375
REMARK  163  A    between atoms: _374  and  _377
REMARK  164  A    between atoms: _379  and  _381
REMARK  165  A    between atoms: _381  and  _382
REMARK  166  A    between atoms: _381  and  _384
REMARK  167  A    between atoms: _384  and  _385
REMARK  168  A    between atoms: _385  and  _386
REMARK  169  A    between atoms: _391  and  _393
REMARK  170  A    between atoms: _393  and  _394
REMARK  171  A    between atoms: _393  and  _396
REMARK  172  A    between atoms: _396  and  _397
REMARK  173  A    between atoms: _397  and  _398
REMARK  174  A    between atoms: _404  and  _405
REMARK  175  A    between atoms: _410  and  _412
REMARK  176  A    between atoms: _412  and  _413
REMARK  177  A    between atoms: _412  and  _415
REMARK  178  A    between atoms: _415  and  _416
REMARK  179  A    between atoms: _418  and  _420
REMARK  180  A    between atoms: _420  and  _421
REMARK  181  A    between atoms: _420  and  _423
REMARK  182  A    between atoms: _423  and  _424
REMARK  183  A    between atoms: _429  and  _431
REMARK  184  A    between atoms: _431  and  _432
REMARK  185  A    between atoms: _431  and  _434
REMARK  186  A    between atoms: _434  and  _435
REMARK  187  A    between atoms: _438  and  _440
REMARK  188  A    between atoms: _440  and  _441
REMARK  189  A    between atoms: _440  and  _443
REMARK  190  A    between atoms: _446  and  _448
REMARK  191  A    between atoms: _448  and  _449
REMARK  192  A    between atoms: _448  and  _451
REMARK  193  A    between atoms: _454  and  _456
REMARK  194  A    between atoms: _456  and  _457
REMARK  195  A    between atoms: _456  and  _459
REMARK  196  A    between atoms: _459  and  _460
REMARK  197  A    between atoms: _460  and  _461
REMARK  198  A    between atoms: _461  and  _462
REMARK  199  A    between atoms: _462  and  _463
REMARK  200  A    between atoms: _467  and  _469
REMARK  201  A    between atoms: _469  and  _470
REMARK  202  A    between atoms: _469  and  _472
REMARK  203  A    between atoms: _472  and  _473
REMARK  204  A    between atoms: _476  and  _478
REMARK  205  A    between atoms: _478  and  _479
REMARK  206  A    between atoms: _478  and  _481
REMARK  207  A    between atoms: _481  and  _482
REMARK  208  A    between atoms: _485  and  _487
REMARK  209  A    between atoms: _487  and  _488
REMARK  210  A    between atoms: _487  and  _490
REMARK  211  A    between atoms: _490  and  _491
REMARK  212  A    between atoms: _494  and  _496
REMARK  213  A    between atoms: _496  and  _497
REMARK  214  A    between atoms: _496  and  _499
REMARK  215  A    between atoms: _499  and  _500
REMARK                            x       y       z     vdW  Elec       q    Type
REMARK                         _______ _______ _______ _____ _____    ______ ____
ROOT
ATOM      1  C   LEU A   3      11.228  10.025  39.410  0.00  0.00    +0.241 C 
ATOM      2  N   LEU A   4      12.096   9.189  39.976  0.00  0.00    -0.297 N 
ATOM      3  H   LEU A   4      13.022   9.045  39.525  0.00  0.00    +0.150 HD
ATOM      4  O   LEU A   3      10.005  10.072  39.700  0.00  0.00    -0.273 OA
ENDROOT
BRANCH   2   5
ATOM      5  CA  LEU A   4      11.788   8.456  41.228  0.00  0.00    +0.149 C 
BRANCH   5   6
ATOM      6  C   LEU A   4      11.850   9.350  42.482  0.00  0.00    +0.241 C 
ATOM      7  O   LEU A   4      11.085   9.171  43.428  0.00  0.00    -0.273 OA
ATOM      8  N   ASN A   5      12.728  10.342  42.486  0.00  0.00    -0.297 N 
ATOM      9  H   ASN A   5      13.239  10.580  41.612  0.00  0.00    +0.150 HD
BRANCH   8  10
ATOM     10  CA  ASN A   5      12.985  11.102  43.699  0.00  0.00    +0.158 C 
BRANCH  10  11
ATOM     11  C   ASN A   5      13.783  12.333  43.351  0.00  0.00    +0.241 C 
ATOM     12  N   VAL A   6      13.641  13.350  44.185  0.00  0.00    -0.298 N 
ATOM     13  H   VAL A   6      12.963  13.260  44.968  0.00  0.00    +0.150 HD
ATOM     14  O   ASN A   5      14.551  12.341  42.371  0.00  0.00    -0.273 OA
BRANCH  12  15
ATOM     15  CA  VAL A   6      14.393  14.589  44.054  0.00  0.00    +0.137 C 
BRANCH  15  16
ATOM     16  CB  VAL A   6      13.538  15.722  43.370  0.00  0.00    +0.026 C 
ATOM     17  CG2 VAL A   6      14.307  17.058  43.348  0.00  0.00    +0.002 C 
ATOM     18  CG1 VAL A   6      13.138  15.328  41.950  0.00  0.00    +0.002 C 
ENDBRANCH  15  16
BRANCH  15  19
ATOM     19  C   VAL A   6      14.713  15.021  45.478  0.00  0.00    +0.227 C 
ATOM     20  O   VAL A   6      13.811  15.062  46.294  0.00  0.00    -0.286 OA
ENDBRANCH  15  19
ENDBRANCH  12  15
ENDBRANCH  10  11
BRANCH  10  21
ATOM     21  CB  ASN A   5      13.787  10.227  44.677  0.00  0.00    +0.114 C 
BRANCH  21  22
ATOM     22  CG  ASN A   5      13.663  10.644  46.107  0.00  0.00    +0.222 C 
ATOM     23  ND2 ASN A   5      14.188   9.823  46.987  0.00  0.00    -0.329 N 
ATOM     24 HD21 ASN A   5      14.131  10.042  48.002  0.00  0.00    +0.145 HD
ATOM     25 HD22 ASN A   5      14.661   8.953  46.669  0.00  0.00    +0.145 HD
ATOM     26  OD1 ASN A   5      13.102  11.669  46.433  0.00  0.00    -0.275 OA
ENDBRANCH  21  22
ENDBRANCH  10  21
ENDBRANCH   8  10
ENDBRANCH   5   6
BRANCH   5  27
ATOM     27  CB  LEU A   4      12.753   7.275  41.386  0.00  0.00    +0.029 C 
BRANCH  27  28
ATOM     28  CG  LEU A   4      12.636   6.124  40.408  0.00  0.00    +0.002 C 
ATOM     29  CD2 LEU A   4      13.760   5.167  40.688  0.00  0.00    +0.000 C 
ATOM     30  CD1 LEU A   4      11.306   5.431  40.555  0.00  0.00    +0.000 C 
ENDBRANCH  27  28
ENDBRANCH   5  27
ENDBRANCH   2   5
BRANCH   1  31
ATOM     31  CA  LEU A   3      11.817  10.950  38.368  0.00  0.00    +0.149 C 
BRANCH  31  33
ATOM     32  C   SER A   2      11.199  10.291  36.118  0.00  0.00    +0.243 C 
ATOM     33  N   LEU A   3      11.006  11.045  37.189  0.00  0.00    -0.297 N 
ATOM     34  H   LEU A   3      10.231  11.738  37.175  0.00  0.00    +0.150 HD
ATOM     35  O   SER A   2      12.019   9.382  36.043  0.00  0.00    -0.273 OA
BRANCH  32  36
ATOM     36  CA  SER A   2      10.271  10.590  34.962  0.00  0.00    +0.178 C 
BRANCH  36  38
ATOM     37  C   ILE A   1      11.056  11.144  32.733  0.00  0.00    +0.238 C 
ATOM     38  N   SER A   2      11.007  10.305  33.752  0.00  0.00    -0.295 N 
ATOM     39  H   SER A   2      11.519   9.403  33.680  0.00  0.00    +0.150 HD
ATOM     40  O   ILE A   1      10.310  12.134  32.621  0.00  0.00    -0.274 OA
BRANCH  37  41
ATOM     41  CA  ILE A   1      12.228  10.908  31.776  0.00  0.00    +0.145 C 
BRANCH  41  42
ATOM     42  N   ILE A   1      11.801  11.094  30.358  0.00  0.00    -0.238 NA
ATOM     43  H   ILE A   1      12.431  11.580  29.688  0.00  0.00    +0.142 HD
ENDBRANCH  41  42
BRANCH  41  44
ATOM     44  CB  ILE A   1      13.209  11.990  32.410  0.00  0.00    +0.025 C 
ATOM     45  CG2 ILE A   1      14.379  11.352  33.165  0.00  0.00    +0.002 C 
BRANCH  44  46
ATOM     46  CG1 ILE A   1      13.544  13.116  31.487  0.00  0.00    +0.002 C 
ATOM     47  CD1 ILE A   1      12.332  13.932  31.101  0.00  0.00    +0.000 C 
ENDBRANCH  44  46
ENDBRANCH  41  44
ENDBRANCH  37  41
ENDBRANCH  36  38
BRANCH  36  48
ATOM     48  CB  SER A   2       9.048   9.704  35.070  0.00  0.00    +0.166 C 
BRANCH  48  49
ATOM     49  OG  SER A   2       9.326   8.366  34.623  0.00  0.00    -0.380 OA
ATOM     50  H   SER A   2       8.508   7.815  34.707  0.00  0.00    +0.211 HD
ENDBRANCH  48  49
ENDBRANCH  36  48
ENDBRANCH  32  36
ENDBRANCH  31  33
BRANCH  31  51
ATOM     51  CB  LEU A   3      11.964  12.334  38.963  0.00  0.00    +0.029 C 
BRANCH  51  52
ATOM     52  CG  LEU A   3      12.713  13.351  38.086  0.00  0.00    +0.002 C 
ATOM     53  CD2 LEU A   3      13.155  14.578  38.925  0.00  0.00    +0.000 C 
ATOM     54  CD1 LEU A   3      13.905  12.748  37.354  0.00  0.00    +0.000 C 
ENDBRANCH  51  52
ENDBRANCH  31  51
ENDBRANCH   1  31
TORSDOF 23
REMARK  Name = ../refined-set-2016/2o0u/2o0u_pocket.pdb
REMARK  215 active torsions:
REMARK  status: ('A' for Active; 'I' for Inactive)
REMARK    1  A    between atoms: _1  and  _3
REMARK    2  A    between atoms: _3  and  _4
REMARK    3  A    between atoms: _3  and  _6
REMARK    4  A    between atoms: _6  and  _7
REMARK    5  A    between atoms: _7  and  _8
REMARK    6  A    between atoms: _8  and  _9
REMARK    7  A    between atoms: _9  and  _10
REMARK    8  A    between atoms: _15  and  _16
REMARK    9  A    between atoms: _21  and  _23
REMARK   10  A    between atoms: _23  and  _24
REMARK   11  A    between atoms: _23  and  _26
REMARK   12  A    between atoms: _26  and  _27
REMARK   13  A    between atoms: _30  and  _32
REMARK   14  A    between atoms: _32  and  _33
REMARK   15  A    between atoms: _35  and  _37
REMARK   16  A    between atoms: _37  and  _38
REMARK   17  A    between atoms: _37  and  _40
REMARK   18  A    between atoms: _40  and  _41
REMARK   19  A    between atoms: _43  and  _45
REMARK   20  A    between atoms: _45  and  _46
REMARK   21  A    between atoms: _48  and  _50
REMARK   22  A    between atoms: _50  and  _51
REMARK   23  A    between atoms: _50  and  _53
REMARK   24  A    between atoms: _53  and  _54
REMARK   25  A    between atoms: _54  and  _55
REMARK   26  A    between atoms: _60  and  _62
REMARK   27  A    between atoms: _62  and  _63
REMARK   28  A    between atoms: _65  and  _67
REMARK   29  A    between atoms: _67  and  _68
REMARK   30  A    between atoms: _67  and  _70
REMARK   31  A    between atoms: _70  and  _71
REMARK   32  A    between atoms: _74  and  _76
REMARK   33  A    between atoms: _76  and  _77
REMARK   34  A    between atoms: _76  and  _79
REMARK   35  A    between atoms: _82  and  _84
REMARK   36  A    between atoms: _84  and  _85
REMARK   37  A    between atoms: _84  and  _87
REMARK   38  A    between atoms: _89  and  _91
REMARK   39  A    between atoms: _91  and  _92
REMARK   40  A    between atoms: _95  and  _97
REMARK   41  A    between atoms: _97  and  _98
REMARK   42  A    between atoms: _101  and  _103
REMARK   43  A    between atoms: _103  and  _104
REMARK   44  A    between atoms: _103  and  _106
REMARK   45  A    between atoms: _106  and  _107
REMARK   46  A    between atoms: _112  and  _114
REMARK   47  A    between atoms: _114  and  _115
REMARK   48  A    between atoms: _114  and  _117
REMARK   49  A    between atoms: _120  and  _122
REMARK   50  A    between atoms: _122  and  _123
REMARK   51  A    between atoms: _126  and  _128
REMARK   52  A    between atoms: _128  and  _129
REMARK   53  A    between atoms: _128  and  _131
REMARK   54  A    between atoms: _131  and  _132
REMARK   55  A    between atoms: _135  and  _137
REMARK   56  A    between atoms: _137  and  _138
REMARK   57  A    between atoms: _137  and  _140
REMARK   58  A    between atoms: _140  and  _141
REMARK   59  A    between atoms: _141  and  _142
REMARK   60  A    between atoms: _142  and  _143
REMARK   61  A    between atoms: _143  and  _144
REMARK   62  A    between atoms: _148  and  _150
REMARK   63  A    between atoms: _150  and  _151
REMARK   64  A    between atoms: _150  and  _153
REMARK   65  A    between atoms: _153  and  _154
REMARK   66  A    between atoms: _154  and  _155
REMARK   67  A    between atoms: _155  and  _156
REMARK   68  A    between atoms: _156  and  _157
REMARK   69  A    between atoms: _161  and  _163
REMARK   70  A    between atoms: _163  and  _164
REMARK   71  A    between atoms: _163  and  _166
REMARK   72  A    between atoms: _166  and  _167
REMARK   73  A    between atoms: _170  and  _172
REMARK   74  A    between atoms: _172  and  _173
REMARK   75  A    between atoms: _172  and  _175
REMARK   76  A    between atoms: _175  and  _176
REMARK   77  A    between atoms: _176  and  _177
REMARK   78  A    between atoms: _177  and  _178
REMARK   79  A    between atoms: _187  and  _189
REMARK   80  A    between atoms: _189  and  _190
REMARK   81  A    between atoms: _189  and  _192
REMARK   82  A    between atoms: _192  and  _193
REMARK   83  A    between atoms: _193  and  _194
REMARK   84  A    between atoms: _197  and  _199
REMARK   85  A    between atoms: _199  and  _200
REMARK   86  A    between atoms: _199  and  _202
REMARK   87  A    between atoms: _202  and  _203
REMARK   88  A    between atoms: _206  and  _208
REMARK   89  A    between atoms: _208  and  _209
REMARK   90  A    between atoms: _208  and  _211
REMARK   91  A    between atoms: _211  and  _212
REMARK   92  A    between atoms: _212  and  _213
REMARK   93  A    between atoms: _215  and  _217
REMARK   94  A    between atoms: _217  and  _218
REMARK   95  A    between atoms: _217  and  _220
REMARK   96  A    between atoms: _220  and  _221
REMARK   97  A    between atoms: _224  and  _226
REMARK   98  A    between atoms: _226  and  _227
REMARK   99  A    between atoms: _226  and  _229
REMARK  100  A    between atoms: _229  and  _230
REMARK  101  A    between atoms: _232  and  _234
REMARK  102  A    between atoms: _234  and  _235
REMARK  103  A    between atoms: _234  and  _237
REMARK  104  A    between atoms: _237  and  _238
REMARK  105  A    between atoms: _241  and  _243
REMARK  106  A    between atoms: _243  and  _244
REMARK  107  A    between atoms: _243  and  _246
REMARK  108  A    between atoms: _246  and  _247
REMARK  109  A    between atoms: _250  and  _252
REMARK  110  A    between atoms: _252  and  _253
REMARK  111  A    between atoms: _252  and  _255
REMARK  112  A    between atoms: _255  and  _256
REMARK  113  A    between atoms: _261  and  _263
REMARK  114  A    between atoms: _263  and  _264
REMARK  115  A    between atoms: _263  and  _266
REMARK  116  A    between atoms: _269  and  _271
REMARK  117  A    between atoms: _271  and  _272
REMARK  118  A    between atoms: _271  and  _274
REMARK  119  A    between atoms: _274  and  _275
REMARK  120  A    between atoms: _280  and  _281
REMARK  121  A    between atoms: _283  and  _285
REMARK  122  A    between atoms: _285  and  _286
REMARK  123  A    between atoms: _285  and  _288
REMARK  124  A    between atoms: _288  and  _289
REMARK  125  A    between atoms: _292  and  _294
REMARK  126  A    between atoms: _294  and  _295
REMARK  127  A    between atoms: _294  and  _297
REMARK  128  A    between atoms: _300  and  _302
REMARK  129  A    between atoms: _302  and  _303
REMARK  130  A    between atoms: _302  and  _305
REMARK  131  A    between atoms: _305  and  _306
REMARK  132  A    between atoms: _306  and  _307
REMARK  133  A    between atoms: _309  and  _311
REMARK  134  A    between atoms: _311  and  _312
REMARK  135  A    between atoms: _311  and  _314
REMARK  136  A    between atoms: _314  and  _315
REMARK  137  A    between atoms: _315  and  _316
REMARK  138  A    between atoms: _319  and  _321
REMARK  139  A    between atoms: _321  and  _322
REMARK  140  A    between atoms: _321  and  _324
REMARK  141  A    between atoms: _324  and  _325
REMARK  142  A    between atoms: _328  and  _330
REMARK  143  A    between atoms: _330  and  _331
REMARK  144  A    between atoms: _330  and  _333
REMARK  145  A    between atoms: _333  and  _334
REMARK  146  A    between atoms: _334  and  _335
REMARK  147  A    between atoms: _337  and  _339
REMARK  148  A    between atoms: _339  and  _340
REMARK  149  A    between atoms: _339  and  _342
REMARK  150  A    between atoms: _342  and  _343
REMARK  151  A    between atoms: _346  and  _348
REMARK  152  A    between atoms: _348  and  _349
REMARK  153  A    between atoms: _352  and  _354
REMARK  154  A    between atoms: _354  and  _355
REMARK  155  A    between atoms: _354  and  _357
REMARK  156  A    between atoms: _357  and  _358
REMARK  157  A    between atoms: _363  and  _365
REMARK  158  A    between atoms: _365  and  _366
REMARK  159  A    between atoms: _365  and  _368
REMARK  160  A    between atoms: _368  and  _369
REMARK  161  A    between atoms: _372  and  _374
REMARK  162  A    between atoms: _374  and  _375
REMARK  163  A    between atoms: _374  and  _377
REMARK  164  A    between atoms: _379  and  _381
REMARK  165  A    between atoms: _381  and  _382
REMARK  166  A    between atoms: _381  and  _384
REMARK  167  A    between atoms: _384  and  _385
REMARK  168  A    between atoms: _385  and  _386
REMARK  169  A    between atoms: _391  and  _393
REMARK  170  A    between atoms: _393  and  _394
REMARK  171  A    between atoms: _393  and  _396
REMARK  172  A    between atoms: _396  and  _397
REMARK  173  A    between atoms: _397  and  _398
REMARK  174  A    between atoms: _404  and  _405
REMARK  175  A    between atoms: _410  and  _412
REMARK  176  A    between atoms: _412  and  _413
REMARK  177  A    between atoms: _412  and  _415
REMARK  178  A    between atoms: _415  and  _416
REMARK  179  A    between atoms: _418  and  _420
REMARK  180  A    between atoms: _420  and  _421
REMARK  181  A    between atoms: _420  and  _423
REMARK  182  A    between atoms: _423  and  _424
REMARK  183  A    between atoms: _429  and  _431
REMARK  184  A    between atoms: _431  and  _432
REMARK  185  A    between atoms: _431  and  _434
REMARK  186  A    between atoms: _434  and  _435
REMARK  187  A    between atoms: _438  and  _440
REMARK  188  A    between atoms: _440  and  _441
REMARK  189  A    between atoms: _440  and  _443
REMARK  190  A    between atoms: _446  and  _448
REMARK  191  A    between atoms: _448  and  _449
REMARK  192  A    between atoms: _448  and  _451
REMARK  193  A    between atoms: _454  and  _456
REMARK  194  A    between atoms: _456  and  _457
REMARK  195  A    between atoms: _456  and  _459
REMARK  196  A    between atoms: _459  and  _460
REMARK  197  A    between atoms: _460  and  _461
REMARK  198  A    between atoms: _461  and  _462
REMARK  199  A    between atoms: _462  and  _463
REMARK  200  A    between atoms: _467  and  _469
REMARK  201  A    between atoms: _469  and  _470
REMARK  202  A    between atoms: _469  and  _472
REMARK  203  A    between atoms: _472  and  _473
REMARK  204  A    between atoms: _476  and  _478
REMARK  205  A    between atoms: _478  and  _479
REMARK  206  A    between atoms: _478  and  _481
REMARK  207  A    between atoms: _481  and  _482
REMARK  208  A    between atoms: _485  and  _487
REMARK  209  A    between atoms: _487  and  _488
REMARK  210  A    between atoms: _487  and  _490
REMARK  211  A    between atoms: _490  and  _491
REMARK  212  A    between atoms: _494  and  _496
REMARK  213  A    between atoms: _496  and  _497
REMARK  214  A    between atoms: _496  and  _499
REMARK  215  A    between atoms: _499  and  _500
REMARK                            x       y       z     vdW  Elec       q    Type
REMARK                         _______ _______ _______ _____ _____    ______ ____
ROOT
ATOM      1  C   LEU A   6      18.538   2.634  34.022  0.00  0.00    +0.241 C 
ATOM      2  O   LEU A   6      17.912   1.584  33.818  0.00  0.00    -0.273 OA
ATOM      3  N   MET A   7      19.009   3.405  33.037  0.00  0.00    -0.297 N 
ATOM      4  H   MET A   7      19.376   4.348  33.277  0.00  0.00    +0.150 HD
ENDROOT
BRANCH   3   5
ATOM      5  CA  MET A   7      19.031   2.988  31.659  0.00  0.00    +0.149 C 
BRANCH   5   6
ATOM      6  C   MET A   7      20.465   2.591  31.331  0.00  0.00    +0.241 C 
ATOM      7  O   MET A   7      21.368   2.820  32.126  0.00  0.00    -0.273 OA
ATOM      8  N   ASP A   8      20.668   1.989  30.172  0.00  0.00    -0.297 N 
ATOM      9  H   ASP A   8      19.970   2.093  29.408  0.00  0.00    +0.150 HD
BRANCH   8  10
ATOM     10  CA  ASP A   8      21.864   1.179  29.955  0.00  0.00    +0.160 C 
BRANCH  10  11
ATOM     11  C   ASP A   8      22.873   1.902  29.069  0.00  0.00    +0.241 C 
ATOM     12  O   ASP A   8      24.019   1.829  29.311  0.00  0.00    -0.273 OA
ATOM     13  N   ALA A   9      22.378   2.640  28.086  0.00  0.00    -0.297 N 
ATOM     14  H   ALA A   9      21.347   2.768  28.041  0.00  0.00    +0.150 HD
BRANCH  13  15
ATOM     15  CA  ALA A   9      23.178   3.271  27.083  0.00  0.00    +0.149 C 
ATOM     16  CB  ALA A   9      23.306   2.338  25.879  0.00  0.00    +0.031 C 
BRANCH  15  17
ATOM     17  C   ALA A   9      22.560   4.587  26.632  0.00  0.00    +0.241 C 
ATOM     18  O   ALA A   9      21.375   4.871  26.770  0.00  0.00    -0.273 OA
ATOM     19  N   ASN A  10      23.458   5.364  26.077  0.00  0.00    -0.297 N 
ATOM     20  H   ASN A  10      24.446   5.066  26.204  0.00  0.00    +0.150 HD
BRANCH  19  21
ATOM     21  CA  ASN A  10      23.265   6.600  25.298  0.00  0.00    +0.158 C 
BRANCH  21  22
ATOM     22  C   ASN A  10      22.806   6.240  23.860  0.00  0.00    +0.241 C 
ATOM     23  O   ASN A  10      23.085   5.163  23.367  0.00  0.00    -0.273 OA
ATOM     24  N   LEU A  11      22.134   7.120  23.135  0.00  0.00    -0.297 N 
ATOM     25  H   LEU A  11      21.782   8.006  23.551  0.00  0.00    +0.150 HD
BRANCH  24  26
ATOM     26  CA  LEU A  11      21.903   6.796  21.710  0.00  0.00    +0.149 C 
BRANCH  26  27
ATOM     27  C   LEU A  11      23.237   6.814  20.903  0.00  0.00    +0.241 C 
ATOM     28  N   CYS A  12      24.157   7.676  21.268  0.00  0.00    -0.296 N 
ATOM     29  H   CYS A  12      23.955   8.373  22.013  0.00  0.00    +0.150 HD
ATOM     30  O   LEU A  11      23.436   6.045  19.962  0.00  0.00    -0.273 OA
BRANCH  28  31
ATOM     31  CA  CYS A  12      25.444   7.651  20.633  0.00  0.00    +0.160 C 
BRANCH  31  32
ATOM     32  C   CYS A  12      26.013   6.224  20.521  0.00  0.00    +0.242 C 
ATOM     33  N   GLN A  13      25.922   5.415  21.568  0.00  0.00    -0.298 N 
ATOM     34  H   GLN A  13      25.404   5.701  22.423  0.00  0.00    +0.150 HD
ATOM     35  O   CYS A  12      26.514   5.846  19.457  0.00  0.00    -0.273 OA
BRANCH  33  36
ATOM     36  CA  GLN A  13      26.578   4.099  21.482  0.00  0.00    +0.137 C 
BRANCH  36  37
ATOM     37  C   GLN A  13      25.759   3.213  20.576  0.00  0.00    +0.227 C 
ATOM     38  O   GLN A  13      26.307   2.430  19.853  0.00  0.00    -0.286 OA
ENDBRANCH  36  37
BRANCH  36  39
ATOM     39  CB  GLN A  13      26.795   3.432  22.824  0.00  0.00    +0.037 C 
BRANCH  39  40
ATOM     40  CG  GLN A  13      27.319   4.332  23.935  0.00  0.00    +0.087 C 
BRANCH  40  41
ATOM     41  CD  GLN A  13      26.818   3.829  25.291  0.00  0.00    +0.219 C 
ATOM     42  OE1 GLN A  13      26.138   4.555  26.064  0.00  0.00    -0.275 OA
ATOM     43  NE2 GLN A  13      27.108   2.547  25.559  0.00  0.00    -0.329 N 
ATOM     44 HE21 GLN A  13      26.767   2.110  26.439  0.00  0.00    +0.145 HD
ATOM     45 HE22 GLN A  13      27.674   1.990  24.887  0.00  0.00    +0.145 HD
ENDBRANCH  40  41
ENDBRANCH  39  40
ENDBRANCH  36  39
ENDBRANCH  33  36
ENDBRANCH  31  32
BRANCH  31  46
ATOM     46  CB  CYS A  12      26.452   8.549  21.364  0.00  0.00    +0.098 C 
ATOM     47  SG  CYS A  12      25.855  10.281  21.685  0.00  0.00    -0.080 S 
ENDBRANCH  31  46
ENDBRANCH  28  31
ENDBRANCH  26  27
BRANCH  26  48
ATOM     48  CB  LEU A  11      20.880   7.713  21.077  0.00  0.00    +0.029 C 
BRANCH  48  49
ATOM     49  CG  LEU A  11      19.492   7.237  20.688  0.00  0.00    +0.002 C 
ATOM     50  CD2 LEU A  11      19.261   5.781  20.074  0.00  0.00    +0.000 C 
ATOM     51  CD1 LEU A  11      19.084   8.316  19.722  0.00  0.00    +0.000 C 
ENDBRANCH  48  49
ENDBRANCH  26  48
ENDBRANCH  24  26
ENDBRANCH  21  22
BRANCH  21  52
ATOM     52  CB  ASN A  10      24.746   7.104  25.263  0.00  0.00    +0.114 C 
BRANCH  52  53
ATOM     53  CG  ASN A  10      24.904   8.487  24.802  0.00  0.00    +0.222 C 
ATOM     54  ND2 ASN A  10      25.357   9.390  25.700  0.00  0.00    -0.329 N 
ATOM     55 HD21 ASN A  10      25.516   9.106  26.688  0.00  0.00    +0.145 HD
ATOM     56 HD22 ASN A  10      25.546  10.369  25.403  0.00  0.00    +0.145 HD
ATOM     57  OD1 ASN A  10      24.696   8.756  23.626  0.00  0.00    -0.275 OA
ENDBRANCH  52  53
ENDBRANCH  21  52
ENDBRANCH  19  21
ENDBRANCH  15  17
ENDBRANCH  13  15
ENDBRANCH  10  11
BRANCH  10  58
ATOM     58  CB  ASP A   8      21.441  -0.161  29.345  0.00  0.00    +0.143 C 
BRANCH  58  59
ATOM     59  CG  ASP A   8      20.617  -0.996  30.311  0.00  0.00    +0.367 C 
ATOM     60  OD2 ASP A   8      20.880  -0.919  31.521  0.00  0.00    -0.246 OA
ATOM     61  OD1 ASP A   8      19.703  -1.706  29.872  0.00  0.00    -0.246 OA
ENDBRANCH  58  59
ENDBRANCH  10  58
ENDBRANCH   8  10
ENDBRANCH   5   6
BRANCH   5  62
ATOM     62  CB  MET A   7      18.593   4.128  30.757  0.00  0.00    +0.041 C 
BRANCH  62  63
ATOM     63  CG  MET A   7      17.265   4.750  31.132  0.00  0.00    +0.060 C 
BRANCH  63  64
ATOM     64  SD  MET A   7      15.848   3.738  30.705  0.00  0.00    -0.139 S 
ATOM     65  CE  MET A   7      15.595   3.931  28.929  0.00  0.00    +0.069 C 
ENDBRANCH  63  64
ENDBRANCH  62  63
ENDBRANCH   5  62
ENDBRANCH   3   5
BRANCH   1  66
ATOM     66  CA  LEU A   6      18.799   3.120  35.453  0.00  0.00    +0.149 C 
BRANCH  66  68
ATOM     67  C   GLU A   5      16.658   4.151  35.922  0.00  0.00    +0.241 C 
ATOM     68  N   LEU A   6      17.557   3.219  36.219  0.00  0.00    -0.297 N 
ATOM     69  H   LEU A   6      17.377   2.556  37.000  0.00  0.00    +0.150 HD
ATOM     70  O   GLU A   5      16.768   4.855  34.945  0.00  0.00    -0.273 OA
BRANCH  67  71
ATOM     71  CA  GLU A   5      15.454   4.285  36.820  0.00  0.00    +0.149 C 
BRANCH  71  74
ATOM     72  C   MET A   4      15.931   6.523  37.718  0.00  0.00    +0.241 C 
ATOM     73  O   MET A   4      16.917   6.123  38.288  0.00  0.00    -0.273 OA
ATOM     74  N   GLU A   5      15.119   5.707  37.047  0.00  0.00    -0.297 N 
ATOM     75  H   GLU A   5      14.224   6.081  36.672  0.00  0.00    +0.150 HD
BRANCH  72  76
ATOM     76  CA  MET A   4      15.596   8.002  37.749  0.00  0.00    +0.149 C 
BRANCH  76  79
ATOM     77  C   VAL A   3      15.926   9.525  39.646  0.00  0.00    +0.241 C 
ATOM     78  O   VAL A   3      14.738   9.877  39.686  0.00  0.00    -0.273 OA
ATOM     79  N   MET A   4      16.398   8.650  38.765  0.00  0.00    -0.297 N 
ATOM     80  H   MET A   4      17.410   8.415  38.808  0.00  0.00    +0.150 HD
BRANCH  77  81
ATOM     81  CA  VAL A   3      16.941  10.051  40.679  0.00  0.00    +0.149 C 
BRANCH  81  83
ATOM     82  C   LEU A   2      17.798  12.333  40.495  0.00  0.00    +0.241 C 
ATOM     83  N   VAL A   3      16.801  11.502  40.777  0.00  0.00    -0.297 N 
ATOM     84  H   VAL A   3      15.888  11.898  41.078  0.00  0.00    +0.150 HD
ATOM     85  O   LEU A   2      18.868  11.947  40.066  0.00  0.00    -0.273 OA
BRANCH  82  86
ATOM     86  CA  LEU A   2      17.536  13.827  40.700  0.00  0.00    +0.149 C 
BRANCH  86  89
ATOM     87  C   TYR A   1      18.509  14.880  42.650  0.00  0.00    +0.239 C 
ATOM     88  O   TYR A   1      17.491  14.886  43.285  0.00  0.00    -0.274 OA
ATOM     89  N   LEU A   2      18.624  14.362  41.444  0.00  0.00    -0.297 N 
ATOM     90  H   LEU A   2      19.569  14.343  41.009  0.00  0.00    +0.150 HD
BRANCH  87  91
ATOM     91  CA  TYR A   1      19.788  15.447  43.192  0.00  0.00    +0.149 C 
BRANCH  91  92
ATOM     92  N   TYR A   1      19.624  16.821  43.668  0.00  0.00    -0.238 NA
ATOM     93  H   TYR A   1      18.900  17.006  44.391  0.00  0.00    +0.142 HD
ENDBRANCH  91  92
BRANCH  91  94
ATOM     94  CB  TYR A   1      20.244  14.527  44.288  0.00  0.00    +0.053 C 
BRANCH  94  95
ATOM     95  CG  TYR A   1      21.614  14.839  44.785  0.00  0.00    -0.020 A 
ATOM     96  CD2 TYR A   1      21.786  15.823  45.735  0.00  0.00    -0.001 A 
ATOM     97  CE2 TYR A   1      23.060  16.136  46.229  0.00  0.00    +0.036 A 
ATOM     98  CZ  TYR A   1      24.153  15.453  45.796  0.00  0.00    +0.134 A 
ATOM     99  CE1 TYR A   1      24.017  14.454  44.823  0.00  0.00    +0.036 A 
ATOM    100  CD1 TYR A   1      22.738  14.163  44.314  0.00  0.00    -0.001 A 
BRANCH  98 101
ATOM    101  OH  TYR A   1      25.350  15.847  46.383  0.00  0.00    -0.506 OA
ATOM    102  HH  TYR A   1      25.174  16.569  47.037  0.00  0.00    +0.292 HD
ENDBRANCH  98 101
ENDBRANCH  94  95
ENDBRANCH  91  94
ENDBRANCH  87  91
ENDBRANCH  86  89
BRANCH  86 103
ATOM    103  CB  LEU A   2      17.519  14.560  39.367  0.00  0.00    +0.029 C 
BRANCH 103 104
ATOM    104  CG  LEU A   2      17.432  16.091  39.365  0.00  0.00    +0.002 C 
ATOM    105  CD2 LEU A   2      16.127  16.500  39.972  0.00  0.00    +0.000 C 
ATOM    106  CD1 LEU A   2      17.470  16.603  37.956  0.00  0.00    +0.000 C 
ENDBRANCH 103 104
ENDBRANCH  86 103
ENDBRANCH  82  86
ENDBRANCH  81  83
BRANCH  81 107
ATOM    107  CB  VAL A   3      16.707   9.390  42.071  0.00  0.00    +0.027 C 
ATOM    108  CG2 VAL A   3      17.476  10.137  43.248  0.00  0.00    +0.002 C 
ATOM    109  CG1 VAL A   3      17.049   7.923  42.049  0.00  0.00    +0.002 C 
ENDBRANCH  81 107
ENDBRANCH  77  81
ENDBRANCH  76  79
BRANCH  76 110
ATOM    110  CB  MET A   4      15.871   8.606  36.393  0.00  0.00    +0.041 C 
BRANCH 110 111
ATOM    111  CG  MET A   4      17.158   8.229  35.774  0.00  0.00    +0.060 C 
BRANCH 111 112
ATOM    112  SD  MET A   4      17.330   8.864  34.081  0.00  0.00    -0.139 S 
ATOM    113  CE  MET A   4      16.278   7.661  33.287  0.00  0.00    +0.069 C 
ENDBRANCH 111 112
ENDBRANCH 110 111
ENDBRANCH  76 110
ENDBRANCH  72  76
ENDBRANCH  71  74
BRANCH  71 114
ATOM    114  CB  GLU A   5      14.258   3.547  36.178  0.00  0.00    +0.041 C 
BRANCH 114 115
ATOM    115  CG  GLU A   5      12.920   3.742  36.947  0.00  0.00    +0.116 C 
BRANCH 115 116
ATOM    116  CD  GLU A   5      12.472   2.564  37.840  0.00  0.00    +0.365 C 
ATOM    117  OE2 GLU A   5      11.237   2.487  38.208  0.00  0.00    -0.246 OA
ATOM    118  OE1 GLU A   5      13.330   1.724  38.189  0.00  0.00    -0.246 OA
ENDBRANCH 115 116
ENDBRANCH 114 115
ENDBRANCH  71 114
ENDBRANCH  67  71
ENDBRANCH  66  68
BRANCH  66 119
ATOM    119  CB  LEU A   6      19.777   2.174  36.146  0.00  0.00    +0.029 C 
BRANCH 119 120
ATOM    120  CG  LEU A   6      21.189   2.083  35.598  0.00  0.00    +0.002 C 
ATOM    121  CD2 LEU A   6      21.949   1.080  36.455  0.00  0.00    +0.000 C 
ATOM    122  CD1 LEU A   6      21.848   3.486  35.535  0.00  0.00    +0.000 C 
ENDBRANCH 119 120
ENDBRANCH  66 119
ENDBRANCH   1  66
TORSDOF 53
REMARK  Name = ../refined-set-2016/2o0u/2o0u_pocket.pdb
REMARK  215 active torsions:
REMARK  status: ('A' for Active; 'I' for Inactive)
REMARK    1  A    between atoms: _1  and  _3
REMARK    2  A    between atoms: _3  and  _4
REMARK    3  A    between atoms: _3  and  _6
REMARK    4  A    between atoms: _6  and  _7
REMARK    5  A    between atoms: _7  and  _8
REMARK    6  A    between atoms: _8  and  _9
REMARK    7  A    between atoms: _9  and  _10
REMARK    8  A    between atoms: _15  and  _16
REMARK    9  A    between atoms: _21  and  _23
REMARK   10  A    between atoms: _23  and  _24
REMARK   11  A    between atoms: _23  and  _26
REMARK   12  A    between atoms: _26  and  _27
REMARK   13  A    between atoms: _30  and  _32
REMARK   14  A    between atoms: _32  and  _33
REMARK   15  A    between atoms: _35  and  _37
REMARK   16  A    between atoms: _37  and  _38
REMARK   17  A    between atoms: _37  and  _40
REMARK   18  A    between atoms: _40  and  _41
REMARK   19  A    between atoms: _43  and  _45
REMARK   20  A    between atoms: _45  and  _46
REMARK   21  A    between atoms: _48  and  _50
REMARK   22  A    between atoms: _50  and  _51
REMARK   23  A    between atoms: _50  and  _53
REMARK   24  A    between atoms: _53  and  _54
REMARK   25  A    between atoms: _54  and  _55
REMARK   26  A    between atoms: _60  and  _62
REMARK   27  A    between atoms: _62  and  _63
REMARK   28  A    between atoms: _65  and  _67
REMARK   29  A    between atoms: _67  and  _68
REMARK   30  A    between atoms: _67  and  _70
REMARK   31  A    between atoms: _70  and  _71
REMARK   32  A    between atoms: _74  and  _76
REMARK   33  A    between atoms: _76  and  _77
REMARK   34  A    between atoms: _76  and  _79
REMARK   35  A    between atoms: _82  and  _84
REMARK   36  A    between atoms: _84  and  _85
REMARK   37  A    between atoms: _84  and  _87
REMARK   38  A    between atoms: _89  and  _91
REMARK   39  A    between atoms: _91  and  _92
REMARK   40  A    between atoms: _95  and  _97
REMARK   41  A    between atoms: _97  and  _98
REMARK   42  A    between atoms: _101  and  _103
REMARK   43  A    between atoms: _103  and  _104
REMARK   44  A    between atoms: _103  and  _106
REMARK   45  A    between atoms: _106  and  _107
REMARK   46  A    between atoms: _112  and  _114
REMARK   47  A    between atoms: _114  and  _115
REMARK   48  A    between atoms: _114  and  _117
REMARK   49  A    between atoms: _120  and  _122
REMARK   50  A    between atoms: _122  and  _123
REMARK   51  A    between atoms: _126  and  _128
REMARK   52  A    between atoms: _128  and  _129
REMARK   53  A    between atoms: _128  and  _131
REMARK   54  A    between atoms: _131  and  _132
REMARK   55  A    between atoms: _135  and  _137
REMARK   56  A    between atoms: _137  and  _138
REMARK   57  A    between atoms: _137  and  _140
REMARK   58  A    between atoms: _140  and  _141
REMARK   59  A    between atoms: _141  and  _142
REMARK   60  A    between atoms: _142  and  _143
REMARK   61  A    between atoms: _143  and  _144
REMARK   62  A    between atoms: _148  and  _150
REMARK   63  A    between atoms: _150  and  _151
REMARK   64  A    between atoms: _150  and  _153
REMARK   65  A    between atoms: _153  and  _154
REMARK   66  A    between atoms: _154  and  _155
REMARK   67  A    between atoms: _155  and  _156
REMARK   68  A    between atoms: _156  and  _157
REMARK   69  A    between atoms: _161  and  _163
REMARK   70  A    between atoms: _163  and  _164
REMARK   71  A    between atoms: _163  and  _166
REMARK   72  A    between atoms: _166  and  _167
REMARK   73  A    between atoms: _170  and  _172
REMARK   74  A    between atoms: _172  and  _173
REMARK   75  A    between atoms: _172  and  _175
REMARK   76  A    between atoms: _175  and  _176
REMARK   77  A    between atoms: _176  and  _177
REMARK   78  A    between atoms: _177  and  _178
REMARK   79  A    between atoms: _187  and  _189
REMARK   80  A    between atoms: _189  and  _190
REMARK   81  A    between atoms: _189  and  _192
REMARK   82  A    between atoms: _192  and  _193
REMARK   83  A    between atoms: _193  and  _194
REMARK   84  A    between atoms: _197  and  _199
REMARK   85  A    between atoms: _199  and  _200
REMARK   86  A    between atoms: _199  and  _202
REMARK   87  A    between atoms: _202  and  _203
REMARK   88  A    between atoms: _206  and  _208
REMARK   89  A    between atoms: _208  and  _209
REMARK   90  A    between atoms: _208  and  _211
REMARK   91  A    between atoms: _211  and  _212
REMARK   92  A    between atoms: _212  and  _213
REMARK   93  A    between atoms: _215  and  _217
REMARK   94  A    between atoms: _217  and  _218
REMARK   95  A    between atoms: _217  and  _220
REMARK   96  A    between atoms: _220  and  _221
REMARK   97  A    between atoms: _224  and  _226
REMARK   98  A    between atoms: _226  and  _227
REMARK   99  A    between atoms: _226  and  _229
REMARK  100  A    between atoms: _229  and  _230
REMARK  101  A    between atoms: _232  and  _234
REMARK  102  A    between atoms: _234  and  _235
REMARK  103  A    between atoms: _234  and  _237
REMARK  104  A    between atoms: _237  and  _238
REMARK  105  A    between atoms: _241  and  _243
REMARK  106  A    between atoms: _243  and  _244
REMARK  107  A    between atoms: _243  and  _246
REMARK  108  A    between atoms: _246  and  _247
REMARK  109  A    between atoms: _250  and  _252
REMARK  110  A    between atoms: _252  and  _253
REMARK  111  A    between atoms: _252  and  _255
REMARK  112  A    between atoms: _255  and  _256
REMARK  113  A    between atoms: _261  and  _263
REMARK  114  A    between atoms: _263  and  _264
REMARK  115  A    between atoms: _263  and  _266
REMARK  116  A    between atoms: _269  and  _271
REMARK  117  A    between atoms: _271  and  _272
REMARK  118  A    between atoms: _271  and  _274
REMARK  119  A    between atoms: _274  and  _275
REMARK  120  A    between atoms: _280  and  _281
REMARK  121  A    between atoms: _283  and  _285
REMARK  122  A    between atoms: _285  and  _286
REMARK  123  A    between atoms: _285  and  _288
REMARK  124  A    between atoms: _288  and  _289
REMARK  125  A    between atoms: _292  and  _294
REMARK  126  A    between atoms: _294  and  _295
REMARK  127  A    between atoms: _294  and  _297
REMARK  128  A    between atoms: _300  and  _302
REMARK  129  A    between atoms: _302  and  _303
REMARK  130  A    between atoms: _302  and  _305
REMARK  131  A    between atoms: _305  and  _306
REMARK  132  A    between atoms: _306  and  _307
REMARK  133  A    between atoms: _309  and  _311
REMARK  134  A    between atoms: _311  and  _312
REMARK  135  A    between atoms: _311  and  _314
REMARK  136  A    between atoms: _314  and  _315
REMARK  137  A    between atoms: _315  and  _316
REMARK  138  A    between atoms: _319  and  _321
REMARK  139  A    between atoms: _321  and  _322
REMARK  140  A    between atoms: _321  and  _324
REMARK  141  A    between atoms: _324  and  _325
REMARK  142  A    between atoms: _328  and  _330
REMARK  143  A    between atoms: _330  and  _331
REMARK  144  A    between atoms: _330  and  _333
REMARK  145  A    between atoms: _333  and  _334
REMARK  146  A    between atoms: _334  and  _335
REMARK  147  A    between atoms: _337  and  _339
REMARK  148  A    between atoms: _339  and  _340
REMARK  149  A    between atoms: _339  and  _342
REMARK  150  A    between atoms: _342  and  _343
REMARK  151  A    between atoms: _346  and  _348
REMARK  152  A    between atoms: _348  and  _349
REMARK  153  A    between atoms: _352  and  _354
REMARK  154  A    between atoms: _354  and  _355
REMARK  155  A    between atoms: _354  and  _357
REMARK  156  A    between atoms: _357  and  _358
REMARK  157  A    between atoms: _363  and  _365
REMARK  158  A    between atoms: _365  and  _366
REMARK  159  A    between atoms: _365  and  _368
REMARK  160  A    between atoms: _368  and  _369
REMARK  161  A    between atoms: _372  and  _374
REMARK  162  A    between atoms: _374  and  _375
REMARK  163  A    between atoms: _374  and  _377
REMARK  164  A    between atoms: _379  and  _381
REMARK  165  A    between atoms: _381  and  _382
REMARK  166  A    between atoms: _381  and  _384
REMARK  167  A    between atoms: _384  and  _385
REMARK  168  A    between atoms: _385  and  _386
REMARK  169  A    between atoms: _391  and  _393
REMARK  170  A    between atoms: _393  and  _394
REMARK  171  A    between atoms: _393  and  _396
REMARK  172  A    between atoms: _396  and  _397
REMARK  173  A    between atoms: _397  and  _398
REMARK  174  A    between atoms: _404  and  _405
REMARK  175  A    between atoms: _410  and  _412
REMARK  176  A    between atoms: _412  and  _413
REMARK  177  A    between atoms: _412  and  _415
REMARK  178  A    between atoms: _415  and  _416
REMARK  179  A    between atoms: _418  and  _420
REMARK  180  A    between atoms: _420  and  _421
REMARK  181  A    between atoms: _420  and  _423
REMARK  182  A    between atoms: _423  and  _424
REMARK  183  A    between atoms: _429  and  _431
REMARK  184  A    between atoms: _431  and  _432
REMARK  185  A    between atoms: _431  and  _434
REMARK  186  A    between atoms: _434  and  _435
REMARK  187  A    between atoms: _438  and  _440
REMARK  188  A    between atoms: _440  and  _441
REMARK  189  A    between atoms: _440  and  _443
REMARK  190  A    between atoms: _446  and  _448
REMARK  191  A    between atoms: _448  and  _449
REMARK  192  A    between atoms: _448  and  _451
REMARK  193  A    between atoms: _454  and  _456
REMARK  194  A    between atoms: _456  and  _457
REMARK  195  A    between atoms: _456  and  _459
REMARK  196  A    between atoms: _459  and  _460
REMARK  197  A    between atoms: _460  and  _461
REMARK  198  A    between atoms: _461  and  _462
REMARK  199  A    between atoms: _462  and  _463
REMARK  200  A    between atoms: _467  and  _469
REMARK  201  A    between atoms: _469  and  _470
REMARK  202  A    between atoms: _469  and  _472
REMARK  203  A    between atoms: _472  and  _473
REMARK  204  A    between atoms: _476  and  _478
REMARK  205  A    between atoms: _478  and  _479
REMARK  206  A    between atoms: _478  and  _481
REMARK  207  A    between atoms: _481  and  _482
REMARK  208  A    between atoms: _485  and  _487
REMARK  209  A    between atoms: _487  and  _488
REMARK  210  A    between atoms: _487  and  _490
REMARK  211  A    between atoms: _490  and  _491
REMARK  212  A    between atoms: _494  and  _496
REMARK  213  A    between atoms: _496  and  _497
REMARK  214  A    between atoms: _496  and  _499
REMARK  215  A    between atoms: _499  and  _500
REMARK                            x       y       z     vdW  Elec       q    Type
REMARK                         _______ _______ _______ _____ _____    ______ ____
ROOT
ATOM      1  CB  GLN A   1      28.616   3.116  17.478  0.00  0.00    +0.035 C 
ENDROOT
BRANCH   1   2
ATOM      2  CA  GLN A   1      27.640   3.032  16.341  0.00  0.00    +0.134 C 
BRANCH   2   3
ATOM      3  N   GLN A   1      26.380   3.628  16.764  0.00  0.00    -0.239 NA
ATOM      4  H   GLN A   1      26.122   3.631  17.772  0.00  0.00    +0.142 HD
ENDBRANCH   2   3
BRANCH   2   5
ATOM      5  C   GLN A   1      27.492   1.570  15.934  0.00  0.00    +0.224 C 
ATOM      6  O   GLN A   1      28.381   1.029  15.310  0.00  0.00    -0.287 OA
ENDBRANCH   2   5
ENDBRANCH   1   2
BRANCH   1   7
ATOM      7  CG  GLN A   1      28.776   4.504  18.011  0.00  0.00    +0.087 C 
BRANCH   7   8
ATOM      8  CD  GLN A   1      30.188   4.744  18.524  0.00  0.00    +0.219 C 
ATOM      9  OE1 GLN A   1      30.625   4.126  19.493  0.00  0.00    -0.275 OA
ATOM     10  NE2 GLN A   1      30.900   5.652  17.872  0.00  0.00    -0.329 N 
ATOM     11 HE21 GLN A   1      31.871   5.867  18.175  0.00  0.00    +0.145 HD
ATOM     12 HE22 GLN A   1      30.487   6.150  17.057  0.00  0.00    +0.145 HD
ENDBRANCH   7   8
ENDBRANCH   1   7
TORSDOF 5
REMARK  Name = ../refined-set-2016/2o0u/2o0u_pocket.pdb
REMARK  215 active torsions:
REMARK  status: ('A' for Active; 'I' for Inactive)
REMARK    1  A    between atoms: _1  and  _3
REMARK    2  A    between atoms: _3  and  _4
REMARK    3  A    between atoms: _3  and  _6
REMARK    4  A    between atoms: _6  and  _7
REMARK    5  A    between atoms: _7  and  _8
REMARK    6  A    between atoms: _8  and  _9
REMARK    7  A    between atoms: _9  and  _10
REMARK    8  A    between atoms: _15  and  _16
REMARK    9  A    between atoms: _21  and  _23
REMARK   10  A    between atoms: _23  and  _24
REMARK   11  A    between atoms: _23  and  _26
REMARK   12  A    between atoms: _26  and  _27
REMARK   13  A    between atoms: _30  and  _32
REMARK   14  A    between atoms: _32  and  _33
REMARK   15  A    between atoms: _35  and  _37
REMARK   16  A    between atoms: _37  and  _38
REMARK   17  A    between atoms: _37  and  _40
REMARK   18  A    between atoms: _40  and  _41
REMARK   19  A    between atoms: _43  and  _45
REMARK   20  A    between atoms: _45  and  _46
REMARK   21  A    between atoms: _48  and  _50
REMARK   22  A    between atoms: _50  and  _51
REMARK   23  A    between atoms: _50  and  _53
REMARK   24  A    between atoms: _53  and  _54
REMARK   25  A    between atoms: _54  and  _55
REMARK   26  A    between atoms: _60  and  _62
REMARK   27  A    between atoms: _62  and  _63
REMARK   28  A    between atoms: _65  and  _67
REMARK   29  A    between atoms: _67  and  _68
REMARK   30  A    between atoms: _67  and  _70
REMARK   31  A    between atoms: _70  and  _71
REMARK   32  A    between atoms: _74  and  _76
REMARK   33  A    between atoms: _76  and  _77
REMARK   34  A    between atoms: _76  and  _79
REMARK   35  A    between atoms: _82  and  _84
REMARK   36  A    between atoms: _84  and  _85
REMARK   37  A    between atoms: _84  and  _87
REMARK   38  A    between atoms: _89  and  _91
REMARK   39  A    between atoms: _91  and  _92
REMARK   40  A    between atoms: _95  and  _97
REMARK   41  A    between atoms: _97  and  _98
REMARK   42  A    between atoms: _101  and  _103
REMARK   43  A    between atoms: _103  and  _104
REMARK   44  A    between atoms: _103  and  _106
REMARK   45  A    between atoms: _106  and  _107
REMARK   46  A    between atoms: _112  and  _114
REMARK   47  A    between atoms: _114  and  _115
REMARK   48  A    between atoms: _114  and  _117
REMARK   49  A    between atoms: _120  and  _122
REMARK   50  A    between atoms: _122  and  _123
REMARK   51  A    between atoms: _126  and  _128
REMARK   52  A    between atoms: _128  and  _129
REMARK   53  A    between atoms: _128  and  _131
REMARK   54  A    between atoms: _131  and  _132
REMARK   55  A    between atoms: _135  and  _137
REMARK   56  A    between atoms: _137  and  _138
REMARK   57  A    between atoms: _137  and  _140
REMARK   58  A    between atoms: _140  and  _141
REMARK   59  A    between atoms: _141  and  _142
REMARK   60  A    between atoms: _142  and  _143
REMARK   61  A    between atoms: _143  and  _144
REMARK   62  A    between atoms: _148  and  _150
REMARK   63  A    between atoms: _150  and  _151
REMARK   64  A    between atoms: _150  and  _153
REMARK   65  A    between atoms: _153  and  _154
REMARK   66  A    between atoms: _154  and  _155
REMARK   67  A    between atoms: _155  and  _156
REMARK   68  A    between atoms: _156  and  _157
REMARK   69  A    between atoms: _161  and  _163
REMARK   70  A    between atoms: _163  and  _164
REMARK   71  A    between atoms: _163  and  _166
REMARK   72  A    between atoms: _166  and  _167
REMARK   73  A    between atoms: _170  and  _172
REMARK   74  A    between atoms: _172  and  _173
REMARK   75  A    between atoms: _172  and  _175
REMARK   76  A    between atoms: _175  and  _176
REMARK   77  A    between atoms: _176  and  _177
REMARK   78  A    between atoms: _177  and  _178
REMARK   79  A    between atoms: _187  and  _189
REMARK   80  A    between atoms: _189  and  _190
REMARK   81  A    between atoms: _189  and  _192
REMARK   82  A    between atoms: _192  and  _193
REMARK   83  A    between atoms: _193  and  _194
REMARK   84  A    between atoms: _197  and  _199
REMARK   85  A    between atoms: _199  and  _200
REMARK   86  A    between atoms: _199  and  _202
REMARK   87  A    between atoms: _202  and  _203
REMARK   88  A    between atoms: _206  and  _208
REMARK   89  A    between atoms: _208  and  _209
REMARK   90  A    between atoms: _208  and  _211
REMARK   91  A    between atoms: _211  and  _212
REMARK   92  A    between atoms: _212  and  _213
REMARK   93  A    between atoms: _215  and  _217
REMARK   94  A    between atoms: _217  and  _218
REMARK   95  A    between atoms: _217  and  _220
REMARK   96  A    between atoms: _220  and  _221
REMARK   97  A    between atoms: _224  and  _226
REMARK   98  A    between atoms: _226  and  _227
REMARK   99  A    between atoms: _226  and  _229
REMARK  100  A    between atoms: _229  and  _230
REMARK  101  A    between atoms: _232  and  _234
REMARK  102  A    between atoms: _234  and  _235
REMARK  103  A    between atoms: _234  and  _237
REMARK  104  A    between atoms: _237  and  _238
REMARK  105  A    between atoms: _241  and  _243
REMARK  106  A    between atoms: _243  and  _244
REMARK  107  A    between atoms: _243  and  _246
REMARK  108  A    between atoms: _246  and  _247
REMARK  109  A    between atoms: _250  and  _252
REMARK  110  A    between atoms: _252  and  _253
REMARK  111  A    between atoms: _252  and  _255
REMARK  112  A    between atoms: _255  and  _256
REMARK  113  A    between atoms: _261  and  _263
REMARK  114  A    between atoms: _263  and  _264
REMARK  115  A    between atoms: _263  and  _266
REMARK  116  A    between atoms: _269  and  _271
REMARK  117  A    between atoms: _271  and  _272
REMARK  118  A    between atoms: _271  and  _274
REMARK  119  A    between atoms: _274  and  _275
REMARK  120  A    between atoms: _280  and  _281
REMARK  121  A    between atoms: _283  and  _285
REMARK  122  A    between atoms: _285  and  _286
REMARK  123  A    between atoms: _285  and  _288
REMARK  124  A    between atoms: _288  and  _289
REMARK  125  A    between atoms: _292  and  _294
REMARK  126  A    between atoms: _294  and  _295
REMARK  127  A    between atoms: _294  and  _297
REMARK  128  A    between atoms: _300  and  _302
REMARK  129  A    between atoms: _302  and  _303
REMARK  130  A    between atoms: _302  and  _305
REMARK  131  A    between atoms: _305  and  _306
REMARK  132  A    between atoms: _306  and  _307
REMARK  133  A    between atoms: _309  and  _311
REMARK  134  A    between atoms: _311  and  _312
REMARK  135  A    between atoms: _311  and  _314
REMARK  136  A    between atoms: _314  and  _315
REMARK  137  A    between atoms: _315  and  _316
REMARK  138  A    between atoms: _319  and  _321
REMARK  139  A    between atoms: _321  and  _322
REMARK  140  A    between atoms: _321  and  _324
REMARK  141  A    between atoms: _324  and  _325
REMARK  142  A    between atoms: _328  and  _330
REMARK  143  A    between atoms: _330  and  _331
REMARK  144  A    between atoms: _330  and  _333
REMARK  145  A    between atoms: _333  and  _334
REMARK  146  A    between atoms: _334  and  _335
REMARK  147  A    between atoms: _337  and  _339
REMARK  148  A    between atoms: _339  and  _340
REMARK  149  A    between atoms: _339  and  _342
REMARK  150  A    between atoms: _342  and  _343
REMARK  151  A    between atoms: _346  and  _348
REMARK  152  A    between atoms: _348  and  _349
REMARK  153  A    between atoms: _352  and  _354
REMARK  154  A    between atoms: _354  and  _355
REMARK  155  A    between atoms: _354  and  _357
REMARK  156  A    between atoms: _357  and  _358
REMARK  157  A    between atoms: _363  and  _365
REMARK  158  A    between atoms: _365  and  _366
REMARK  159  A    between atoms: _365  and  _368
REMARK  160  A    between atoms: _368  and  _369
REMARK  161  A    between atoms: _372  and  _374
REMARK  162  A    between atoms: _374  and  _375
REMARK  163  A    between atoms: _374  and  _377
REMARK  164  A    between atoms: _379  and  _381
REMARK  165  A    between atoms: _381  and  _382
REMARK  166  A    between atoms: _381  and  _384
REMARK  167  A    between atoms: _384  and  _385
REMARK  168  A    between atoms: _385  and  _386
REMARK  169  A    between atoms: _391  and  _393
REMARK  170  A    between atoms: _393  and  _394
REMARK  171  A    between atoms: _393  and  _396
REMARK  172  A    between atoms: _396  and  _397
REMARK  173  A    between atoms: _397  and  _398
REMARK  174  A    between atoms: _404  and  _405
REMARK  175  A    between atoms: _410  and  _412
REMARK  176  A    between atoms: _412  and  _413
REMARK  177  A    between atoms: _412  and  _415
REMARK  178  A    between atoms: _415  and  _416
REMARK  179  A    between atoms: _418  and  _420
REMARK  180  A    between atoms: _420  and  _421
REMARK  181  A    between atoms: _420  and  _423
REMARK  182  A    between atoms: _423  and  _424
REMARK  183  A    between atoms: _429  and  _431
REMARK  184  A    between atoms: _431  and  _432
REMARK  185  A    between atoms: _431  and  _434
REMARK  186  A    between atoms: _434  and  _435
REMARK  187  A    between atoms: _438  and  _440
REMARK  188  A    between atoms: _440  and  _441
REMARK  189  A    between atoms: _440  and  _443
REMARK  190  A    between atoms: _446  and  _448
REMARK  191  A    between atoms: _448  and  _449
REMARK  192  A    between atoms: _448  and  _451
REMARK  193  A    between atoms: _454  and  _456
REMARK  194  A    between atoms: _456  and  _457
REMARK  195  A    between atoms: _456  and  _459
REMARK  196  A    between atoms: _459  and  _460
REMARK  197  A    between atoms: _460  and  _461
REMARK  198  A    between atoms: _461  and  _462
REMARK  199  A    between atoms: _462  and  _463
REMARK  200  A    between atoms: _467  and  _469
REMARK  201  A    between atoms: _469  and  _470
REMARK  202  A    between atoms: _469  and  _472
REMARK  203  A    between atoms: _472  and  _473
REMARK  204  A    between atoms: _476  and  _478
REMARK  205  A    between atoms: _478  and  _479
REMARK  206  A    between atoms: _478  and  _481
REMARK  207  A    between atoms: _481  and  _482
REMARK  208  A    between atoms: _485  and  _487
REMARK  209  A    between atoms: _487  and  _488
REMARK  210  A    between atoms: _487  and  _490
REMARK  211  A    between atoms: _490  and  _491
REMARK  212  A    between atoms: _494  and  _496
REMARK  213  A    between atoms: _496  and  _497
REMARK  214  A    between atoms: _496  and  _499
REMARK  215  A    between atoms: _499  and  _500
REMARK                            x       y       z     vdW  Elec       q    Type
REMARK                         _______ _______ _______ _____ _____    ______ ____
ROOT
ATOM      1  CA  ILE A   4      18.346  10.210  24.649  0.00  0.00    +0.149 C 
ENDROOT
BRANCH   1   4
ATOM      2  C   ASN A   3      19.088  12.367  25.540  0.00  0.00    +0.241 C 
ATOM      3  O   ASN A   3      18.015  12.613  26.020  0.00  0.00    -0.273 OA
ATOM      4  N   ILE A   4      19.343  11.246  24.875  0.00  0.00    -0.297 N 
ATOM      5  H   ILE A   4      20.301  11.101  24.498  0.00  0.00    +0.150 HD
BRANCH   2   6
ATOM      6  CA  ASN A   3      20.277  13.261  25.788  0.00  0.00    +0.158 C 
BRANCH   6   9
ATOM      7  C   SER A   2      22.479  12.602  25.039  0.00  0.00    +0.243 C 
ATOM      8  O   SER A   2      22.725  12.221  26.155  0.00  0.00    -0.273 OA
ATOM      9  N   ASN A   3      21.287  13.108  24.738  0.00  0.00    -0.297 N 
ATOM     10  H   ASN A   3      21.073  13.394  23.761  0.00  0.00    +0.150 HD
BRANCH   7  11
ATOM     11  CA  SER A   2      23.523  12.448  23.933  0.00  0.00    +0.178 C 
BRANCH  11  14
ATOM     12  C   PRO A   1      22.128  11.462  22.232  0.00  0.00    +0.239 C 
ATOM     13  O   PRO A   1      21.786  10.522  22.952  0.00  0.00    -0.274 OA
ATOM     14  N   SER A   2      22.927  12.430  22.636  0.00  0.00    -0.295 N 
ATOM     15  H   SER A   2      23.131  13.213  21.983  0.00  0.00    +0.150 HD
BRANCH  12  17
ATOM     16  N   PRO A   1      21.440  12.960  20.284  0.00  0.00    -0.210 NA
ATOM     17  CA  PRO A   1      21.509  11.604  20.832  0.00  0.00    +0.149 C 
ATOM     18  CB  PRO A   1      22.262  10.839  19.741  0.00  0.00    +0.028 C 
ATOM     19  CG  PRO A   1      22.973  11.860  18.975  0.00  0.00    +0.021 C 
ATOM     20  CD  PRO A   1      22.126  13.044  18.985  0.00  0.00    +0.089 C 
ENDBRANCH  12  17
ENDBRANCH  11  14
BRANCH  11  21
ATOM     21  CB  SER A   2      24.544  13.595  24.015  0.00  0.00    +0.166 C 
BRANCH  21  22
ATOM     22  OG  SER A   2      23.819  14.820  24.003  0.00  0.00    -0.380 OA
ATOM     23  H   SER A   2      23.206  14.847  24.780  0.00  0.00    +0.211 HD
ENDBRANCH  21  22
ENDBRANCH  11  21
ENDBRANCH   7  11
ENDBRANCH   6   9
BRANCH   6  24
ATOM     24  CB  ASN A   3      19.825  14.717  25.917  0.00  0.00    +0.114 C 
BRANCH  24  25
ATOM     25  CG  ASN A   3      20.968  15.675  26.315  0.00  0.00    +0.222 C 
ATOM     26  OD1 ASN A   3      21.911  15.323  27.091  0.00  0.00    -0.275 OA
ATOM     27  ND2 ASN A   3      20.905  16.907  25.761  0.00  0.00    -0.329 N 
ATOM     28 HD21 ASN A   3      21.646  17.607  25.965  0.00  0.00    +0.145 HD
ATOM     29 HD22 ASN A   3      20.115  17.154  25.131  0.00  0.00    +0.145 HD
ENDBRANCH  24  25
ENDBRANCH   6  24
ENDBRANCH   2   6
ENDBRANCH   1   4
BRANCH   1  30
ATOM     30  C   ILE A   4      19.002   8.914  25.165  0.00  0.00    +0.241 C 
ATOM     31  N   VAL A   5      18.310   8.189  26.044  0.00  0.00    -0.297 N 
ATOM     32  H   VAL A   5      17.356   8.490  26.329  0.00  0.00    +0.150 HD
ATOM     33  O   ILE A   4      20.207   8.641  24.873  0.00  0.00    -0.273 OA
BRANCH  31  34
ATOM     34  CA  VAL A   5      18.905   6.943  26.620  0.00  0.00    +0.149 C 
BRANCH  34  35
ATOM     35  C   VAL A   5      18.038   5.721  26.262  0.00  0.00    +0.241 C 
ATOM     36  N   VAL A   6      18.682   4.561  26.252  0.00  0.00    -0.297 N 
ATOM     37  H   VAL A   6      19.700   4.523  26.462  0.00  0.00    +0.150 HD
ATOM     38  O   VAL A   5      16.804   5.833  25.991  0.00  0.00    -0.273 OA
BRANCH  36  39
ATOM     39  CA  VAL A   6      17.951   3.348  25.945  0.00  0.00    +0.149 C 
BRANCH  39  40
ATOM     40  C   VAL A   6      18.325   2.248  26.934  0.00  0.00    +0.241 C 
ATOM     41  O   VAL A   6      19.374   2.289  27.571  0.00  0.00    -0.273 OA
ATOM     42  N   LYS A   7      17.429   1.290  27.052  0.00  0.00    -0.298 N 
ATOM     43  H   LYS A   7      16.510   1.403  26.578  0.00  0.00    +0.150 HD
BRANCH  42  44
ATOM     44  CA  LYS A   7      17.675   0.085  27.817  0.00  0.00    +0.137 C 
BRANCH  44  45
ATOM     45  C   LYS A   7      17.932  -1.100  26.876  0.00  0.00    +0.227 C 
ATOM     46  O   LYS A   7      17.541  -1.085  25.706  0.00  0.00    -0.286 OA
ENDBRANCH  44  45
BRANCH  44  47
ATOM     47  CB  LYS A   7      16.451  -0.215  28.703  0.00  0.00    +0.028 C 
BRANCH  47  48
ATOM     48  CG  LYS A   7      16.607   0.076  30.157  0.00  0.00    -0.000 C 
BRANCH  48  49
ATOM     49  CD  LYS A   7      16.049  -1.076  31.022  0.00  0.00    -0.024 C 
BRANCH  49  50
ATOM     50  CE  LYS A   7      14.540  -1.105  30.969  0.00  0.00    -0.086 C 
BRANCH  50  51
ATOM     51  NZ  LYS A   7      13.927  -1.887  32.119  0.00  0.00    +0.380 N 
ATOM     52  HZ1 LYS A   7      14.206  -1.451  33.021  0.00  0.00    -0.089 HD
ATOM     53  HZ2 LYS A   7      14.266  -2.870  32.088  0.00  0.00    -0.089 HD
ATOM     54  HZ3 LYS A   7      12.891  -1.874  32.032  0.00  0.00    -0.089 HD
ENDBRANCH  50  51
ENDBRANCH  49  50
ENDBRANCH  48  49
ENDBRANCH  47  48
ENDBRANCH  44  47
ENDBRANCH  42  44
ENDBRANCH  39  40
BRANCH  39  55
ATOM     55  CB  VAL A   6      18.202   2.859  24.507  0.00  0.00    +0.027 C 
ATOM     56  CG2 VAL A   6      19.641   2.351  24.375  0.00  0.00    +0.002 C 
ATOM     57  CG1 VAL A   6      17.924   3.961  23.499  0.00  0.00    +0.002 C 
ENDBRANCH  39  55
ENDBRANCH  36  39
ENDBRANCH  34  35
BRANCH  34  58
ATOM     58  CB  VAL A   5      19.133   6.965  28.152  0.00  0.00    +0.027 C 
ATOM     59  CG2 VAL A   5      17.786   7.354  28.971  0.00  0.00    +0.002 C 
ATOM     60  CG1 VAL A   5      20.314   7.822  28.517  0.00  0.00    +0.002 C 
ENDBRANCH  34  58
ENDBRANCH  31  34
ENDBRANCH   1  30
BRANCH   1  61
ATOM     61  CB  ILE A   4      18.022  10.102  23.222  0.00  0.00    +0.027 C 
ATOM     62  CG2 ILE A   4      17.079   8.853  22.986  0.00  0.00    +0.002 C 
BRANCH  61  63
ATOM     63  CG1 ILE A   4      17.335  11.395  22.769  0.00  0.00    +0.002 C 
ATOM     64  CD1 ILE A   4      17.036  11.484  21.283  0.00  0.00    +0.000 C 
ENDBRANCH  61  63
ENDBRANCH   1  61
TORSDOF 26
REMARK  Name = ../refined-set-2016/2o0u/2o0u_pocket.pdb
REMARK  215 active torsions:
REMARK  status: ('A' for Active; 'I' for Inactive)
REMARK    1  A    between atoms: _1  and  _3
REMARK    2  A    between atoms: _3  and  _4
REMARK    3  A    between atoms: _3  and  _6
REMARK    4  A    between atoms: _6  and  _7
REMARK    5  A    between atoms: _7  and  _8
REMARK    6  A    between atoms: _8  and  _9
REMARK    7  A    between atoms: _9  and  _10
REMARK    8  A    between atoms: _15  and  _16
REMARK    9  A    between atoms: _21  and  _23
REMARK   10  A    between atoms: _23  and  _24
REMARK   11  A    between atoms: _23  and  _26
REMARK   12  A    between atoms: _26  and  _27
REMARK   13  A    between atoms: _30  and  _32
REMARK   14  A    between atoms: _32  and  _33
REMARK   15  A    between atoms: _35  and  _37
REMARK   16  A    between atoms: _37  and  _38
REMARK   17  A    between atoms: _37  and  _40
REMARK   18  A    between atoms: _40  and  _41
REMARK   19  A    between atoms: _43  and  _45
REMARK   20  A    between atoms: _45  and  _46
REMARK   21  A    between atoms: _48  and  _50
REMARK   22  A    between atoms: _50  and  _51
REMARK   23  A    between atoms: _50  and  _53
REMARK   24  A    between atoms: _53  and  _54
REMARK   25  A    between atoms: _54  and  _55
REMARK   26  A    between atoms: _60  and  _62
REMARK   27  A    between atoms: _62  and  _63
REMARK   28  A    between atoms: _65  and  _67
REMARK   29  A    between atoms: _67  and  _68
REMARK   30  A    between atoms: _67  and  _70
REMARK   31  A    between atoms: _70  and  _71
REMARK   32  A    between atoms: _74  and  _76
REMARK   33  A    between atoms: _76  and  _77
REMARK   34  A    between atoms: _76  and  _79
REMARK   35  A    between atoms: _82  and  _84
REMARK   36  A    between atoms: _84  and  _85
REMARK   37  A    between atoms: _84  and  _87
REMARK   38  A    between atoms: _89  and  _91
REMARK   39  A    between atoms: _91  and  _92
REMARK   40  A    between atoms: _95  and  _97
REMARK   41  A    between atoms: _97  and  _98
REMARK   42  A    between atoms: _101  and  _103
REMARK   43  A    between atoms: _103  and  _104
REMARK   44  A    between atoms: _103  and  _106
REMARK   45  A    between atoms: _106  and  _107
REMARK   46  A    between atoms: _112  and  _114
REMARK   47  A    between atoms: _114  and  _115
REMARK   48  A    between atoms: _114  and  _117
REMARK   49  A    between atoms: _120  and  _122
REMARK   50  A    between atoms: _122  and  _123
REMARK   51  A    between atoms: _126  and  _128
REMARK   52  A    between atoms: _128  and  _129
REMARK   53  A    between atoms: _128  and  _131
REMARK   54  A    between atoms: _131  and  _132
REMARK   55  A    between atoms: _135  and  _137
REMARK   56  A    between atoms: _137  and  _138
REMARK   57  A    between atoms: _137  and  _140
REMARK   58  A    between atoms: _140  and  _141
REMARK   59  A    between atoms: _141  and  _142
REMARK   60  A    between atoms: _142  and  _143
REMARK   61  A    between atoms: _143  and  _144
REMARK   62  A    between atoms: _148  and  _150
REMARK   63  A    between atoms: _150  and  _151
REMARK   64  A    between atoms: _150  and  _153
REMARK   65  A    between atoms: _153  and  _154
REMARK   66  A    between atoms: _154  and  _155
REMARK   67  A    between atoms: _155  and  _156
REMARK   68  A    between atoms: _156  and  _157
REMARK   69  A    between atoms: _161  and  _163
REMARK   70  A    between atoms: _163  and  _164
REMARK   71  A    between atoms: _163  and  _166
REMARK   72  A    between atoms: _166  and  _167
REMARK   73  A    between atoms: _170  and  _172
REMARK   74  A    between atoms: _172  and  _173
REMARK   75  A    between atoms: _172  and  _175
REMARK   76  A    between atoms: _175  and  _176
REMARK   77  A    between atoms: _176  and  _177
REMARK   78  A    between atoms: _177  and  _178
REMARK   79  A    between atoms: _187  and  _189
REMARK   80  A    between atoms: _189  and  _190
REMARK   81  A    between atoms: _189  and  _192
REMARK   82  A    between atoms: _192  and  _193
REMARK   83  A    between atoms: _193  and  _194
REMARK   84  A    between atoms: _197  and  _199
REMARK   85  A    between atoms: _199  and  _200
REMARK   86  A    between atoms: _199  and  _202
REMARK   87  A    between atoms: _202  and  _203
REMARK   88  A    between atoms: _206  and  _208
REMARK   89  A    between atoms: _208  and  _209
REMARK   90  A    between atoms: _208  and  _211
REMARK   91  A    between atoms: _211  and  _212
REMARK   92  A    between atoms: _212  and  _213
REMARK   93  A    between atoms: _215  and  _217
REMARK   94  A    between atoms: _217  and  _218
REMARK   95  A    between atoms: _217  and  _220
REMARK   96  A    between atoms: _220  and  _221
REMARK   97  A    between atoms: _224  and  _226
REMARK   98  A    between atoms: _226  and  _227
REMARK   99  A    between atoms: _226  and  _229
REMARK  100  A    between atoms: _229  and  _230
REMARK  101  A    between atoms: _232  and  _234
REMARK  102  A    between atoms: _234  and  _235
REMARK  103  A    between atoms: _234  and  _237
REMARK  104  A    between atoms: _237  and  _238
REMARK  105  A    between atoms: _241  and  _243
REMARK  106  A    between atoms: _243  and  _244
REMARK  107  A    between atoms: _243  and  _246
REMARK  108  A    between atoms: _246  and  _247
REMARK  109  A    between atoms: _250  and  _252
REMARK  110  A    between atoms: _252  and  _253
REMARK  111  A    between atoms: _252  and  _255
REMARK  112  A    between atoms: _255  and  _256
REMARK  113  A    between atoms: _261  and  _263
REMARK  114  A    between atoms: _263  and  _264
REMARK  115  A    between atoms: _263  and  _266
REMARK  116  A    between atoms: _269  and  _271
REMARK  117  A    between atoms: _271  and  _272
REMARK  118  A    between atoms: _271  and  _274
REMARK  119  A    between atoms: _274  and  _275
REMARK  120  A    between atoms: _280  and  _281
REMARK  121  A    between atoms: _283  and  _285
REMARK  122  A    between atoms: _285  and  _286
REMARK  123  A    between atoms: _285  and  _288
REMARK  124  A    between atoms: _288  and  _289
REMARK  125  A    between atoms: _292  and  _294
REMARK  126  A    between atoms: _294  and  _295
REMARK  127  A    between atoms: _294  and  _297
REMARK  128  A    between atoms: _300  and  _302
REMARK  129  A    between atoms: _302  and  _303
REMARK  130  A    between atoms: _302  and  _305
REMARK  131  A    between atoms: _305  and  _306
REMARK  132  A    between atoms: _306  and  _307
REMARK  133  A    between atoms: _309  and  _311
REMARK  134  A    between atoms: _311  and  _312
REMARK  135  A    between atoms: _311  and  _314
REMARK  136  A    between atoms: _314  and  _315
REMARK  137  A    between atoms: _315  and  _316
REMARK  138  A    between atoms: _319  and  _321
REMARK  139  A    between atoms: _321  and  _322
REMARK  140  A    between atoms: _321  and  _324
REMARK  141  A    between atoms: _324  and  _325
REMARK  142  A    between atoms: _328  and  _330
REMARK  143  A    between atoms: _330  and  _331
REMARK  144  A    between atoms: _330  and  _333
REMARK  145  A    between atoms: _333  and  _334
REMARK  146  A    between atoms: _334  and  _335
REMARK  147  A    between atoms: _337  and  _339
REMARK  148  A    between atoms: _339  and  _340
REMARK  149  A    between atoms: _339  and  _342
REMARK  150  A    between atoms: _342  and  _343
REMARK  151  A    between atoms: _346  and  _348
REMARK  152  A    between atoms: _348  and  _349
REMARK  153  A    between atoms: _352  and  _354
REMARK  154  A    between atoms: _354  and  _355
REMARK  155  A    between atoms: _354  and  _357
REMARK  156  A    between atoms: _357  and  _358
REMARK  157  A    between atoms: _363  and  _365
REMARK  158  A    between atoms: _365  and  _366
REMARK  159  A    between atoms: _365  and  _368
REMARK  160  A    between atoms: _368  and  _369
REMARK  161  A    between atoms: _372  and  _374
REMARK  162  A    between atoms: _374  and  _375
REMARK  163  A    between atoms: _374  and  _377
REMARK  164  A    between atoms: _379  and  _381
REMARK  165  A    between atoms: _381  and  _382
REMARK  166  A    between atoms: _381  and  _384
REMARK  167  A    between atoms: _384  and  _385
REMARK  168  A    between atoms: _385  and  _386
REMARK  169  A    between atoms: _391  and  _393
REMARK  170  A    between atoms: _393  and  _394
REMARK  171  A    between atoms: _393  and  _396
REMARK  172  A    between atoms: _396  and  _397
REMARK  173  A    between atoms: _397  and  _398
REMARK  174  A    between atoms: _404  and  _405
REMARK  175  A    between atoms: _410  and  _412
REMARK  176  A    between atoms: _412  and  _413
REMARK  177  A    between atoms: _412  and  _415
REMARK  178  A    between atoms: _415  and  _416
REMARK  179  A    between atoms: _418  and  _420
REMARK  180  A    between atoms: _420  and  _421
REMARK  181  A    between atoms: _420  and  _423
REMARK  182  A    between atoms: _423  and  _424
REMARK  183  A    between atoms: _429  and  _431
REMARK  184  A    between atoms: _431  and  _432
REMARK  185  A    between atoms: _431  and  _434
REMARK  186  A    between atoms: _434  and  _435
REMARK  187  A    between atoms: _438  and  _440
REMARK  188  A    between atoms: _440  and  _441
REMARK  189  A    between atoms: _440  and  _443
REMARK  190  A    between atoms: _446  and  _448
REMARK  191  A    between atoms: _448  and  _449
REMARK  192  A    between atoms: _448  and  _451
REMARK  193  A    between atoms: _454  and  _456
REMARK  194  A    between atoms: _456  and  _457
REMARK  195  A    between atoms: _456  and  _459
REMARK  196  A    between atoms: _459  and  _460
REMARK  197  A    between atoms: _460  and  _461
REMARK  198  A    between atoms: _461  and  _462
REMARK  199  A    between atoms: _462  and  _463
REMARK  200  A    between atoms: _467  and  _469
REMARK  201  A    between atoms: _469  and  _470
REMARK  202  A    between atoms: _469  and  _472
REMARK  203  A    between atoms: _472  and  _473
REMARK  204  A    between atoms: _476  and  _478
REMARK  205  A    between atoms: _478  and  _479
REMARK  206  A    between atoms: _478  and  _481
REMARK  207  A    between atoms: _481  and  _482
REMARK  208  A    between atoms: _485  and  _487
REMARK  209  A    between atoms: _487  and  _488
REMARK  210  A    between atoms: _487  and  _490
REMARK  211  A    between atoms: _490  and  _491
REMARK  212  A    between atoms: _494  and  _496
REMARK  213  A    between atoms: _496  and  _497
REMARK  214  A    between atoms: _496  and  _499
REMARK  215  A    between atoms: _499  and  _500
REMARK                            x       y       z     vdW  Elec       q    Type
REMARK                         _______ _______ _______ _____ _____    ______ ____
ROOT
ATOM      1  C   LEU A   2      15.892  14.676  29.310  0.00  0.00    +0.241 C 
ATOM      2  O   LEU A   2      16.341  15.152  30.368  0.00  0.00    -0.273 OA
ATOM      3  N   ASP A   3      15.392  15.454  28.355  0.00  0.00    -0.297 N 
ATOM      4  H   ASP A   3      15.006  15.032  27.486  0.00  0.00    +0.150 HD
ENDROOT
BRANCH   3   5
ATOM      5  CA  ASP A   3      15.388  16.893  28.530  0.00  0.00    +0.160 C 
BRANCH   5   6
ATOM      6  C   ASP A   3      14.322  17.535  27.707  0.00  0.00    +0.241 C 
ATOM      7  N   PHE A   4      14.021  18.767  28.061  0.00  0.00    -0.298 N 
ATOM      8  H   PHE A   4      14.618  19.262  28.753  0.00  0.00    +0.150 HD
ATOM      9  O   ASP A   3      13.758  16.922  26.801  0.00  0.00    -0.273 OA
BRANCH   7  10
ATOM     10  CA  PHE A   4      12.888  19.430  27.508  0.00  0.00    +0.141 C 
BRANCH  10  11
ATOM     11  C   PHE A   4      13.260  20.516  26.540  0.00  0.00    +0.227 C 
ATOM     12  O   PHE A   4      12.412  21.181  26.035  0.00  0.00    -0.286 OA
ENDBRANCH  10  11
BRANCH  10  13
ATOM     13  CB  PHE A   4      12.012  19.921  28.654  0.00  0.00    +0.054 C 
BRANCH  13  14
ATOM     14  CG  PHE A   4      11.416  18.801  29.458  0.00  0.00    -0.020 A 
ATOM     15  CD2 PHE A   4      11.983  18.413  30.666  0.00  0.00    -0.004 A 
ATOM     16  CE2 PHE A   4      11.437  17.366  31.411  0.00  0.00    -0.000 A 
ATOM     17  CZ  PHE A   4      10.307  16.714  30.958  0.00  0.00    -0.000 A 
ATOM     18  CE1 PHE A   4       9.732  17.094  29.738  0.00  0.00    -0.000 A 
ATOM     19  CD1 PHE A   4      10.285  18.122  28.998  0.00  0.00    -0.004 A 
ENDBRANCH  13  14
ENDBRANCH  10  13
ENDBRANCH   7  10
ENDBRANCH   5   6
BRANCH   5  20
ATOM     20  CB  ASP A   3      16.764  17.514  28.242  0.00  0.00    +0.143 C 
BRANCH  20  21
ATOM     21  CG  ASP A   3      17.046  17.668  26.764  0.00  0.00    +0.367 C 
ATOM     22  OD2 ASP A   3      17.686  18.694  26.394  0.00  0.00    -0.246 OA
ATOM     23  OD1 ASP A   3      16.630  16.783  25.956  0.00  0.00    -0.246 OA
ENDBRANCH  20  21
ENDBRANCH   5  20
ENDBRANCH   3   5
BRANCH   1  24
ATOM     24  CA  LEU A   2      16.000  13.173  29.054  0.00  0.00    +0.149 C 
BRANCH  24  27
ATOM     25  C   ILE A   1      14.413  12.126  27.496  0.00  0.00    +0.238 C 
ATOM     26  O   ILE A   1      13.483  12.162  28.316  0.00  0.00    -0.274 OA
ATOM     27  N   LEU A   2      15.629  12.634  27.735  0.00  0.00    -0.297 N 
ATOM     28  H   LEU A   2      16.331  12.648  26.968  0.00  0.00    +0.150 HD
BRANCH  25  29
ATOM     29  CA  ILE A   1      14.205  11.503  26.134  0.00  0.00    +0.145 C 
BRANCH  29  30
ATOM     30  CB  ILE A   1      13.316  12.413  25.296  0.00  0.00    +0.025 C 
ATOM     31  CG2 ILE A   1      13.946  13.872  25.095  0.00  0.00    +0.002 C 
BRANCH  30  32
ATOM     32  CG1 ILE A   1      13.086  11.761  23.924  0.00  0.00    +0.002 C 
ATOM     33  CD1 ILE A   1      11.622  12.146  23.349  0.00  0.00    +0.000 C 
ENDBRANCH  30  32
ENDBRANCH  29  30
BRANCH  29  34
ATOM     34  N   ILE A   1      13.630  10.133  26.232  0.00  0.00    -0.238 NA
ATOM     35  H   ILE A   1      12.618   9.998  26.036  0.00  0.00    +0.142 HD
ENDBRANCH  29  34
ENDBRANCH  25  29
ENDBRANCH  24  27
BRANCH  24  36
ATOM     36  CB  LEU A   2      17.465  12.825  29.356  0.00  0.00    +0.029 C 
BRANCH  36  37
ATOM     37  CG  LEU A   2      17.946  11.395  29.449  0.00  0.00    +0.002 C 
ATOM     38  CD2 LEU A   2      17.295  10.705  30.525  0.00  0.00    +0.000 C 
ATOM     39  CD1 LEU A   2      19.542  11.429  29.703  0.00  0.00    +0.000 C 
ENDBRANCH  36  37
ENDBRANCH  24  36
ENDBRANCH   1  24
TORSDOF 16
REMARK  Name = ../refined-set-2016/2o0u/2o0u_pocket.pdb
REMARK  215 active torsions:
REMARK  status: ('A' for Active; 'I' for Inactive)
REMARK    1  A    between atoms: _1  and  _3
REMARK    2  A    between atoms: _3  and  _4
REMARK    3  A    between atoms: _3  and  _6
REMARK    4  A    between atoms: _6  and  _7
REMARK    5  A    between atoms: _7  and  _8
REMARK    6  A    between atoms: _8  and  _9
REMARK    7  A    between atoms: _9  and  _10
REMARK    8  A    between atoms: _15  and  _16
REMARK    9  A    between atoms: _21  and  _23
REMARK   10  A    between atoms: _23  and  _24
REMARK   11  A    between atoms: _23  and  _26
REMARK   12  A    between atoms: _26  and  _27
REMARK   13  A    between atoms: _30  and  _32
REMARK   14  A    between atoms: _32  and  _33
REMARK   15  A    between atoms: _35  and  _37
REMARK   16  A    between atoms: _37  and  _38
REMARK   17  A    between atoms: _37  and  _40
REMARK   18  A    between atoms: _40  and  _41
REMARK   19  A    between atoms: _43  and  _45
REMARK   20  A    between atoms: _45  and  _46
REMARK   21  A    between atoms: _48  and  _50
REMARK   22  A    between atoms: _50  and  _51
REMARK   23  A    between atoms: _50  and  _53
REMARK   24  A    between atoms: _53  and  _54
REMARK   25  A    between atoms: _54  and  _55
REMARK   26  A    between atoms: _60  and  _62
REMARK   27  A    between atoms: _62  and  _63
REMARK   28  A    between atoms: _65  and  _67
REMARK   29  A    between atoms: _67  and  _68
REMARK   30  A    between atoms: _67  and  _70
REMARK   31  A    between atoms: _70  and  _71
REMARK   32  A    between atoms: _74  and  _76
REMARK   33  A    between atoms: _76  and  _77
REMARK   34  A    between atoms: _76  and  _79
REMARK   35  A    between atoms: _82  and  _84
REMARK   36  A    between atoms: _84  and  _85
REMARK   37  A    between atoms: _84  and  _87
REMARK   38  A    between atoms: _89  and  _91
REMARK   39  A    between atoms: _91  and  _92
REMARK   40  A    between atoms: _95  and  _97
REMARK   41  A    between atoms: _97  and  _98
REMARK   42  A    between atoms: _101  and  _103
REMARK   43  A    between atoms: _103  and  _104
REMARK   44  A    between atoms: _103  and  _106
REMARK   45  A    between atoms: _106  and  _107
REMARK   46  A    between atoms: _112  and  _114
REMARK   47  A    between atoms: _114  and  _115
REMARK   48  A    between atoms: _114  and  _117
REMARK   49  A    between atoms: _120  and  _122
REMARK   50  A    between atoms: _122  and  _123
REMARK   51  A    between atoms: _126  and  _128
REMARK   52  A    between atoms: _128  and  _129
REMARK   53  A    between atoms: _128  and  _131
REMARK   54  A    between atoms: _131  and  _132
REMARK   55  A    between atoms: _135  and  _137
REMARK   56  A    between atoms: _137  and  _138
REMARK   57  A    between atoms: _137  and  _140
REMARK   58  A    between atoms: _140  and  _141
REMARK   59  A    between atoms: _141  and  _142
REMARK   60  A    between atoms: _142  and  _143
REMARK   61  A    between atoms: _143  and  _144
REMARK   62  A    between atoms: _148  and  _150
REMARK   63  A    between atoms: _150  and  _151
REMARK   64  A    between atoms: _150  and  _153
REMARK   65  A    between atoms: _153  and  _154
REMARK   66  A    between atoms: _154  and  _155
REMARK   67  A    between atoms: _155  and  _156
REMARK   68  A    between atoms: _156  and  _157
REMARK   69  A    between atoms: _161  and  _163
REMARK   70  A    between atoms: _163  and  _164
REMARK   71  A    between atoms: _163  and  _166
REMARK   72  A    between atoms: _166  and  _167
REMARK   73  A    between atoms: _170  and  _172
REMARK   74  A    between atoms: _172  and  _173
REMARK   75  A    between atoms: _172  and  _175
REMARK   76  A    between atoms: _175  and  _176
REMARK   77  A    between atoms: _176  and  _177
REMARK   78  A    between atoms: _177  and  _178
REMARK   79  A    between atoms: _187  and  _189
REMARK   80  A    between atoms: _189  and  _190
REMARK   81  A    between atoms: _189  and  _192
REMARK   82  A    between atoms: _192  and  _193
REMARK   83  A    between atoms: _193  and  _194
REMARK   84  A    between atoms: _197  and  _199
REMARK   85  A    between atoms: _199  and  _200
REMARK   86  A    between atoms: _199  and  _202
REMARK   87  A    between atoms: _202  and  _203
REMARK   88  A    between atoms: _206  and  _208
REMARK   89  A    between atoms: _208  and  _209
REMARK   90  A    between atoms: _208  and  _211
REMARK   91  A    between atoms: _211  and  _212
REMARK   92  A    between atoms: _212  and  _213
REMARK   93  A    between atoms: _215  and  _217
REMARK   94  A    between atoms: _217  and  _218
REMARK   95  A    between atoms: _217  and  _220
REMARK   96  A    between atoms: _220  and  _221
REMARK   97  A    between atoms: _224  and  _226
REMARK   98  A    between atoms: _226  and  _227
REMARK   99  A    between atoms: _226  and  _229
REMARK  100  A    between atoms: _229  and  _230
REMARK  101  A    between atoms: _232  and  _234
REMARK  102  A    between atoms: _234  and  _235
REMARK  103  A    between atoms: _234  and  _237
REMARK  104  A    between atoms: _237  and  _238
REMARK  105  A    between atoms: _241  and  _243
REMARK  106  A    between atoms: _243  and  _244
REMARK  107  A    between atoms: _243  and  _246
REMARK  108  A    between atoms: _246  and  _247
REMARK  109  A    between atoms: _250  and  _252
REMARK  110  A    between atoms: _252  and  _253
REMARK  111  A    between atoms: _252  and  _255
REMARK  112  A    between atoms: _255  and  _256
REMARK  113  A    between atoms: _261  and  _263
REMARK  114  A    between atoms: _263  and  _264
REMARK  115  A    between atoms: _263  and  _266
REMARK  116  A    between atoms: _269  and  _271
REMARK  117  A    between atoms: _271  and  _272
REMARK  118  A    between atoms: _271  and  _274
REMARK  119  A    between atoms: _274  and  _275
REMARK  120  A    between atoms: _280  and  _281
REMARK  121  A    between atoms: _283  and  _285
REMARK  122  A    between atoms: _285  and  _286
REMARK  123  A    between atoms: _285  and  _288
REMARK  124  A    between atoms: _288  and  _289
REMARK  125  A    between atoms: _292  and  _294
REMARK  126  A    between atoms: _294  and  _295
REMARK  127  A    between atoms: _294  and  _297
REMARK  128  A    between atoms: _300  and  _302
REMARK  129  A    between atoms: _302  and  _303
REMARK  130  A    between atoms: _302  and  _305
REMARK  131  A    between atoms: _305  and  _306
REMARK  132  A    between atoms: _306  and  _307
REMARK  133  A    between atoms: _309  and  _311
REMARK  134  A    between atoms: _311  and  _312
REMARK  135  A    between atoms: _311  and  _314
REMARK  136  A    between atoms: _314  and  _315
REMARK  137  A    between atoms: _315  and  _316
REMARK  138  A    between atoms: _319  and  _321
REMARK  139  A    between atoms: _321  and  _322
REMARK  140  A    between atoms: _321  and  _324
REMARK  141  A    between atoms: _324  and  _325
REMARK  142  A    between atoms: _328  and  _330
REMARK  143  A    between atoms: _330  and  _331
REMARK  144  A    between atoms: _330  and  _333
REMARK  145  A    between atoms: _333  and  _334
REMARK  146  A    between atoms: _334  and  _335
REMARK  147  A    between atoms: _337  and  _339
REMARK  148  A    between atoms: _339  and  _340
REMARK  149  A    between atoms: _339  and  _342
REMARK  150  A    between atoms: _342  and  _343
REMARK  151  A    between atoms: _346  and  _348
REMARK  152  A    between atoms: _348  and  _349
REMARK  153  A    between atoms: _352  and  _354
REMARK  154  A    between atoms: _354  and  _355
REMARK  155  A    between atoms: _354  and  _357
REMARK  156  A    between atoms: _357  and  _358
REMARK  157  A    between atoms: _363  and  _365
REMARK  158  A    between atoms: _365  and  _366
REMARK  159  A    between atoms: _365  and  _368
REMARK  160  A    between atoms: _368  and  _369
REMARK  161  A    between atoms: _372  and  _374
REMARK  162  A    between atoms: _374  and  _375
REMARK  163  A    between atoms: _374  and  _377
REMARK  164  A    between atoms: _379  and  _381
REMARK  165  A    between atoms: _381  and  _382
REMARK  166  A    between atoms: _381  and  _384
REMARK  167  A    between atoms: _384  and  _385
REMARK  168  A    between atoms: _385  and  _386
REMARK  169  A    between atoms: _391  and  _393
REMARK  170  A    between atoms: _393  and  _394
REMARK  171  A    between atoms: _393  and  _396
REMARK  172  A    between atoms: _396  and  _397
REMARK  173  A    between atoms: _397  and  _398
REMARK  174  A    between atoms: _404  and  _405
REMARK  175  A    between atoms: _410  and  _412
REMARK  176  A    between atoms: _412  and  _413
REMARK  177  A    between atoms: _412  and  _415
REMARK  178  A    between atoms: _415  and  _416
REMARK  179  A    between atoms: _418  and  _420
REMARK  180  A    between atoms: _420  and  _421
REMARK  181  A    between atoms: _420  and  _423
REMARK  182  A    between atoms: _423  and  _424
REMARK  183  A    between atoms: _429  and  _431
REMARK  184  A    between atoms: _431  and  _432
REMARK  185  A    between atoms: _431  and  _434
REMARK  186  A    between atoms: _434  and  _435
REMARK  187  A    between atoms: _438  and  _440
REMARK  188  A    between atoms: _440  and  _441
REMARK  189  A    between atoms: _440  and  _443
REMARK  190  A    between atoms: _446  and  _448
REMARK  191  A    between atoms: _448  and  _449
REMARK  192  A    between atoms: _448  and  _451
REMARK  193  A    between atoms: _454  and  _456
REMARK  194  A    between atoms: _456  and  _457
REMARK  195  A    between atoms: _456  and  _459
REMARK  196  A    between atoms: _459  and  _460
REMARK  197  A    between atoms: _460  and  _461
REMARK  198  A    between atoms: _461  and  _462
REMARK  199  A    between atoms: _462  and  _463
REMARK  200  A    between atoms: _467  and  _469
REMARK  201  A    between atoms: _469  and  _470
REMARK  202  A    between atoms: _469  and  _472
REMARK  203  A    between atoms: _472  and  _473
REMARK  204  A    between atoms: _476  and  _478
REMARK  205  A    between atoms: _478  and  _479
REMARK  206  A    between atoms: _478  and  _481
REMARK  207  A    between atoms: _481  and  _482
REMARK  208  A    between atoms: _485  and  _487
REMARK  209  A    between atoms: _487  and  _488
REMARK  210  A    between atoms: _487  and  _490
REMARK  211  A    between atoms: _490  and  _491
REMARK  212  A    between atoms: _494  and  _496
REMARK  213  A    between atoms: _496  and  _497
REMARK  214  A    between atoms: _496  and  _499
REMARK  215  A    between atoms: _499  and  _500
REMARK                            x       y       z     vdW  Elec       q    Type
REMARK                         _______ _______ _______ _____ _____    ______ ____
ROOT
ATOM      1  O   HOH     1      22.843  14.386  31.995  0.00  0.00    +0.000 OA
ENDROOT
TORSDOF 0
REMARK  Name = ../refined-set-2016/2o0u/2o0u_pocket.pdb
REMARK  215 active torsions:
REMARK  status: ('A' for Active; 'I' for Inactive)
REMARK    1  A    between atoms: _1  and  _3
REMARK    2  A    between atoms: _3  and  _4
REMARK    3  A    between atoms: _3  and  _6
REMARK    4  A    between atoms: _6  and  _7
REMARK    5  A    between atoms: _7  and  _8
REMARK    6  A    between atoms: _8  and  _9
REMARK    7  A    between atoms: _9  and  _10
REMARK    8  A    between atoms: _15  and  _16
REMARK    9  A    between atoms: _21  and  _23
REMARK   10  A    between atoms: _23  and  _24
REMARK   11  A    between atoms: _23  and  _26
REMARK   12  A    between atoms: _26  and  _27
REMARK   13  A    between atoms: _30  and  _32
REMARK   14  A    between atoms: _32  and  _33
REMARK   15  A    between atoms: _35  and  _37
REMARK   16  A    between atoms: _37  and  _38
REMARK   17  A    between atoms: _37  and  _40
REMARK   18  A    between atoms: _40  and  _41
REMARK   19  A    between atoms: _43  and  _45
REMARK   20  A    between atoms: _45  and  _46
REMARK   21  A    between atoms: _48  and  _50
REMARK   22  A    between atoms: _50  and  _51
REMARK   23  A    between atoms: _50  and  _53
REMARK   24  A    between atoms: _53  and  _54
REMARK   25  A    between atoms: _54  and  _55
REMARK   26  A    between atoms: _60  and  _62
REMARK   27  A    between atoms: _62  and  _63
REMARK   28  A    between atoms: _65  and  _67
REMARK   29  A    between atoms: _67  and  _68
REMARK   30  A    between atoms: _67  and  _70
REMARK   31  A    between atoms: _70  and  _71
REMARK   32  A    between atoms: _74  and  _76
REMARK   33  A    between atoms: _76  and  _77
REMARK   34  A    between atoms: _76  and  _79
REMARK   35  A    between atoms: _82  and  _84
REMARK   36  A    between atoms: _84  and  _85
REMARK   37  A    between atoms: _84  and  _87
REMARK   38  A    between atoms: _89  and  _91
REMARK   39  A    between atoms: _91  and  _92
REMARK   40  A    between atoms: _95  and  _97
REMARK   41  A    between atoms: _97  and  _98
REMARK   42  A    between atoms: _101  and  _103
REMARK   43  A    between atoms: _103  and  _104
REMARK   44  A    between atoms: _103  and  _106
REMARK   45  A    between atoms: _106  and  _107
REMARK   46  A    between atoms: _112  and  _114
REMARK   47  A    between atoms: _114  and  _115
REMARK   48  A    between atoms: _114  and  _117
REMARK   49  A    between atoms: _120  and  _122
REMARK   50  A    between atoms: _122  and  _123
REMARK   51  A    between atoms: _126  and  _128
REMARK   52  A    between atoms: _128  and  _129
REMARK   53  A    between atoms: _128  and  _131
REMARK   54  A    between atoms: _131  and  _132
REMARK   55  A    between atoms: _135  and  _137
REMARK   56  A    between atoms: _137  and  _138
REMARK   57  A    between atoms: _137  and  _140
REMARK   58  A    between atoms: _140  and  _141
REMARK   59  A    between atoms: _141  and  _142
REMARK   60  A    between atoms: _142  and  _143
REMARK   61  A    between atoms: _143  and  _144
REMARK   62  A    between atoms: _148  and  _150
REMARK   63  A    between atoms: _150  and  _151
REMARK   64  A    between atoms: _150  and  _153
REMARK   65  A    between atoms: _153  and  _154
REMARK   66  A    between atoms: _154  and  _155
REMARK   67  A    between atoms: _155  and  _156
REMARK   68  A    between atoms: _156  and  _157
REMARK   69  A    between atoms: _161  and  _163
REMARK   70  A    between atoms: _163  and  _164
REMARK   71  A    between atoms: _163  and  _166
REMARK   72  A    between atoms: _166  and  _167
REMARK   73  A    between atoms: _170  and  _172
REMARK   74  A    between atoms: _172  and  _173
REMARK   75  A    between atoms: _172  and  _175
REMARK   76  A    between atoms: _175  and  _176
REMARK   77  A    between atoms: _176  and  _177
REMARK   78  A    between atoms: _177  and  _178
REMARK   79  A    between atoms: _187  and  _189
REMARK   80  A    between atoms: _189  and  _190
REMARK   81  A    between atoms: _189  and  _192
REMARK   82  A    between atoms: _192  and  _193
REMARK   83  A    between atoms: _193  and  _194
REMARK   84  A    between atoms: _197  and  _199
REMARK   85  A    between atoms: _199  and  _200
REMARK   86  A    between atoms: _199  and  _202
REMARK   87  A    between atoms: _202  and  _203
REMARK   88  A    between atoms: _206  and  _208
REMARK   89  A    between atoms: _208  and  _209
REMARK   90  A    between atoms: _208  and  _211
REMARK   91  A    between atoms: _211  and  _212
REMARK   92  A    between atoms: _212  and  _213
REMARK   93  A    between atoms: _215  and  _217
REMARK   94  A    between atoms: _217  and  _218
REMARK   95  A    between atoms: _217  and  _220
REMARK   96  A    between atoms: _220  and  _221
REMARK   97  A    between atoms: _224  and  _226
REMARK   98  A    between atoms: _226  and  _227
REMARK   99  A    between atoms: _226  and  _229
REMARK  100  A    between atoms: _229  and  _230
REMARK  101  A    between atoms: _232  and  _234
REMARK  102  A    between atoms: _234  and  _235
REMARK  103  A    between atoms: _234  and  _237
REMARK  104  A    between atoms: _237  and  _238
REMARK  105  A    between atoms: _241  and  _243
REMARK  106  A    between atoms: _243  and  _244
REMARK  107  A    between atoms: _243  and  _246
REMARK  108  A    between atoms: _246  and  _247
REMARK  109  A    between atoms: _250  and  _252
REMARK  110  A    between atoms: _252  and  _253
REMARK  111  A    between atoms: _252  and  _255
REMARK  112  A    between atoms: _255  and  _256
REMARK  113  A    between atoms: _261  and  _263
REMARK  114  A    between atoms: _263  and  _264
REMARK  115  A    between atoms: _263  and  _266
REMARK  116  A    between atoms: _269  and  _271
REMARK  117  A    between atoms: _271  and  _272
REMARK  118  A    between atoms: _271  and  _274
REMARK  119  A    between atoms: _274  and  _275
REMARK  120  A    between atoms: _280  and  _281
REMARK  121  A    between atoms: _283  and  _285
REMARK  122  A    between atoms: _285  and  _286
REMARK  123  A    between atoms: _285  and  _288
REMARK  124  A    between atoms: _288  and  _289
REMARK  125  A    between atoms: _292  and  _294
REMARK  126  A    between atoms: _294  and  _295
REMARK  127  A    between atoms: _294  and  _297
REMARK  128  A    between atoms: _300  and  _302
REMARK  129  A    between atoms: _302  and  _303
REMARK  130  A    between atoms: _302  and  _305
REMARK  131  A    between atoms: _305  and  _306
REMARK  132  A    between atoms: _306  and  _307
REMARK  133  A    between atoms: _309  and  _311
REMARK  134  A    between atoms: _311  and  _312
REMARK  135  A    between atoms: _311  and  _314
REMARK  136  A    between atoms: _314  and  _315
REMARK  137  A    between atoms: _315  and  _316
REMARK  138  A    between atoms: _319  and  _321
REMARK  139  A    between atoms: _321  and  _322
REMARK  140  A    between atoms: _321  and  _324
REMARK  141  A    between atoms: _324  and  _325
REMARK  142  A    between atoms: _328  and  _330
REMARK  143  A    between atoms: _330  and  _331
REMARK  144  A    between atoms: _330  and  _333
REMARK  145  A    between atoms: _333  and  _334
REMARK  146  A    between atoms: _334  and  _335
REMARK  147  A    between atoms: _337  and  _339
REMARK  148  A    between atoms: _339  and  _340
REMARK  149  A    between atoms: _339  and  _342
REMARK  150  A    between atoms: _342  and  _343
REMARK  151  A    between atoms: _346  and  _348
REMARK  152  A    between atoms: _348  and  _349
REMARK  153  A    between atoms: _352  and  _354
REMARK  154  A    between atoms: _354  and  _355
REMARK  155  A    between atoms: _354  and  _357
REMARK  156  A    between atoms: _357  and  _358
REMARK  157  A    between atoms: _363  and  _365
REMARK  158  A    between atoms: _365  and  _366
REMARK  159  A    between atoms: _365  and  _368
REMARK  160  A    between atoms: _368  and  _369
REMARK  161  A    between atoms: _372  and  _374
REMARK  162  A    between atoms: _374  and  _375
REMARK  163  A    between atoms: _374  and  _377
REMARK  164  A    between atoms: _379  and  _381
REMARK  165  A    between atoms: _381  and  _382
REMARK  166  A    between atoms: _381  and  _384
REMARK  167  A    between atoms: _384  and  _385
REMARK  168  A    between atoms: _385  and  _386
REMARK  169  A    between atoms: _391  and  _393
REMARK  170  A    between atoms: _393  and  _394
REMARK  171  A    between atoms: _393  and  _396
REMARK  172  A    between atoms: _396  and  _397
REMARK  173  A    between atoms: _397  and  _398
REMARK  174  A    between atoms: _404  and  _405
REMARK  175  A    between atoms: _410  and  _412
REMARK  176  A    between atoms: _412  and  _413
REMARK  177  A    between atoms: _412  and  _415
REMARK  178  A    between atoms: _415  and  _416
REMARK  179  A    between atoms: _418  and  _420
REMARK  180  A    between atoms: _420  and  _421
REMARK  181  A    between atoms: _420  and  _423
REMARK  182  A    between atoms: _423  and  _424
REMARK  183  A    between atoms: _429  and  _431
REMARK  184  A    between atoms: _431  and  _432
REMARK  185  A    between atoms: _431  and  _434
REMARK  186  A    between atoms: _434  and  _435
REMARK  187  A    between atoms: _438  and  _440
REMARK  188  A    between atoms: _440  and  _441
REMARK  189  A    between atoms: _440  and  _443
REMARK  190  A    between atoms: _446  and  _448
REMARK  191  A    between atoms: _448  and  _449
REMARK  192  A    between atoms: _448  and  _451
REMARK  193  A    between atoms: _454  and  _456
REMARK  194  A    between atoms: _456  and  _457
REMARK  195  A    between atoms: _456  and  _459
REMARK  196  A    between atoms: _459  and  _460
REMARK  197  A    between atoms: _460  and  _461
REMARK  198  A    between atoms: _461  and  _462
REMARK  199  A    between atoms: _462  and  _463
REMARK  200  A    between atoms: _467  and  _469
REMARK  201  A    between atoms: _469  and  _470
REMARK  202  A    between atoms: _469  and  _472
REMARK  203  A    between atoms: _472  and  _473
REMARK  204  A    between atoms: _476  and  _478
REMARK  205  A    between atoms: _478  and  _479
REMARK  206  A    between atoms: _478  and  _481
REMARK  207  A    between atoms: _481  and  _482
REMARK  208  A    between atoms: _485  and  _487
REMARK  209  A    between atoms: _487  and  _488
REMARK  210  A    between atoms: _487  and  _490
REMARK  211  A    between atoms: _490  and  _491
REMARK  212  A    between atoms: _494  and  _496
REMARK  213  A    between atoms: _496  and  _497
REMARK  214  A    between atoms: _496  and  _499
REMARK  215  A    between atoms: _499  and  _500
REMARK                            x       y       z     vdW  Elec       q    Type
REMARK                         _______ _______ _______ _____ _____    ______ ____
ROOT
ATOM      1  O   HOH     1      28.745  10.712  29.088  0.00  0.00    +0.000 OA
ENDROOT
TORSDOF 0
REMARK  Name = ../refined-set-2016/2o0u/2o0u_pocket.pdb
REMARK  215 active torsions:
REMARK  status: ('A' for Active; 'I' for Inactive)
REMARK    1  A    between atoms: _1  and  _3
REMARK    2  A    between atoms: _3  and  _4
REMARK    3  A    between atoms: _3  and  _6
REMARK    4  A    between atoms: _6  and  _7
REMARK    5  A    between atoms: _7  and  _8
REMARK    6  A    between atoms: _8  and  _9
REMARK    7  A    between atoms: _9  and  _10
REMARK    8  A    between atoms: _15  and  _16
REMARK    9  A    between atoms: _21  and  _23
REMARK   10  A    between atoms: _23  and  _24
REMARK   11  A    between atoms: _23  and  _26
REMARK   12  A    between atoms: _26  and  _27
REMARK   13  A    between atoms: _30  and  _32
REMARK   14  A    between atoms: _32  and  _33
REMARK   15  A    between atoms: _35  and  _37
REMARK   16  A    between atoms: _37  and  _38
REMARK   17  A    between atoms: _37  and  _40
REMARK   18  A    between atoms: _40  and  _41
REMARK   19  A    between atoms: _43  and  _45
REMARK   20  A    between atoms: _45  and  _46
REMARK   21  A    between atoms: _48  and  _50
REMARK   22  A    between atoms: _50  and  _51
REMARK   23  A    between atoms: _50  and  _53
REMARK   24  A    between atoms: _53  and  _54
REMARK   25  A    between atoms: _54  and  _55
REMARK   26  A    between atoms: _60  and  _62
REMARK   27  A    between atoms: _62  and  _63
REMARK   28  A    between atoms: _65  and  _67
REMARK   29  A    between atoms: _67  and  _68
REMARK   30  A    between atoms: _67  and  _70
REMARK   31  A    between atoms: _70  and  _71
REMARK   32  A    between atoms: _74  and  _76
REMARK   33  A    between atoms: _76  and  _77
REMARK   34  A    between atoms: _76  and  _79
REMARK   35  A    between atoms: _82  and  _84
REMARK   36  A    between atoms: _84  and  _85
REMARK   37  A    between atoms: _84  and  _87
REMARK   38  A    between atoms: _89  and  _91
REMARK   39  A    between atoms: _91  and  _92
REMARK   40  A    between atoms: _95  and  _97
REMARK   41  A    between atoms: _97  and  _98
REMARK   42  A    between atoms: _101  and  _103
REMARK   43  A    between atoms: _103  and  _104
REMARK   44  A    between atoms: _103  and  _106
REMARK   45  A    between atoms: _106  and  _107
REMARK   46  A    between atoms: _112  and  _114
REMARK   47  A    between atoms: _114  and  _115
REMARK   48  A    between atoms: _114  and  _117
REMARK   49  A    between atoms: _120  and  _122
REMARK   50  A    between atoms: _122  and  _123
REMARK   51  A    between atoms: _126  and  _128
REMARK   52  A    between atoms: _128  and  _129
REMARK   53  A    between atoms: _128  and  _131
REMARK   54  A    between atoms: _131  and  _132
REMARK   55  A    between atoms: _135  and  _137
REMARK   56  A    between atoms: _137  and  _138
REMARK   57  A    between atoms: _137  and  _140
REMARK   58  A    between atoms: _140  and  _141
REMARK   59  A    between atoms: _141  and  _142
REMARK   60  A    between atoms: _142  and  _143
REMARK   61  A    between atoms: _143  and  _144
REMARK   62  A    between atoms: _148  and  _150
REMARK   63  A    between atoms: _150  and  _151
REMARK   64  A    between atoms: _150  and  _153
REMARK   65  A    between atoms: _153  and  _154
REMARK   66  A    between atoms: _154  and  _155
REMARK   67  A    between atoms: _155  and  _156
REMARK   68  A    between atoms: _156  and  _157
REMARK   69  A    between atoms: _161  and  _163
REMARK   70  A    between atoms: _163  and  _164
REMARK   71  A    between atoms: _163  and  _166
REMARK   72  A    between atoms: _166  and  _167
REMARK   73  A    between atoms: _170  and  _172
REMARK   74  A    between atoms: _172  and  _173
REMARK   75  A    between atoms: _172  and  _175
REMARK   76  A    between atoms: _175  and  _176
REMARK   77  A    between atoms: _176  and  _177
REMARK   78  A    between atoms: _177  and  _178
REMARK   79  A    between atoms: _187  and  _189
REMARK   80  A    between atoms: _189  and  _190
REMARK   81  A    between atoms: _189  and  _192
REMARK   82  A    between atoms: _192  and  _193
REMARK   83  A    between atoms: _193  and  _194
REMARK   84  A    between atoms: _197  and  _199
REMARK   85  A    between atoms: _199  and  _200
REMARK   86  A    between atoms: _199  and  _202
REMARK   87  A    between atoms: _202  and  _203
REMARK   88  A    between atoms: _206  and  _208
REMARK   89  A    between atoms: _208  and  _209
REMARK   90  A    between atoms: _208  and  _211
REMARK   91  A    between atoms: _211  and  _212
REMARK   92  A    between atoms: _212  and  _213
REMARK   93  A    between atoms: _215  and  _217
REMARK   94  A    between atoms: _217  and  _218
REMARK   95  A    between atoms: _217  and  _220
REMARK   96  A    between atoms: _220  and  _221
REMARK   97  A    between atoms: _224  and  _226
REMARK   98  A    between atoms: _226  and  _227
REMARK   99  A    between atoms: _226  and  _229
REMARK  100  A    between atoms: _229  and  _230
REMARK  101  A    between atoms: _232  and  _234
REMARK  102  A    between atoms: _234  and  _235
REMARK  103  A    between atoms: _234  and  _237
REMARK  104  A    between atoms: _237  and  _238
REMARK  105  A    between atoms: _241  and  _243
REMARK  106  A    between atoms: _243  and  _244
REMARK  107  A    between atoms: _243  and  _246
REMARK  108  A    between atoms: _246  and  _247
REMARK  109  A    between atoms: _250  and  _252
REMARK  110  A    between atoms: _252  and  _253
REMARK  111  A    between atoms: _252  and  _255
REMARK  112  A    between atoms: _255  and  _256
REMARK  113  A    between atoms: _261  and  _263
REMARK  114  A    between atoms: _263  and  _264
REMARK  115  A    between atoms: _263  and  _266
REMARK  116  A    between atoms: _269  and  _271
REMARK  117  A    between atoms: _271  and  _272
REMARK  118  A    between atoms: _271  and  _274
REMARK  119  A    between atoms: _274  and  _275
REMARK  120  A    between atoms: _280  and  _281
REMARK  121  A    between atoms: _283  and  _285
REMARK  122  A    between atoms: _285  and  _286
REMARK  123  A    between atoms: _285  and  _288
REMARK  124  A    between atoms: _288  and  _289
REMARK  125  A    between atoms: _292  and  _294
REMARK  126  A    between atoms: _294  and  _295
REMARK  127  A    between atoms: _294  and  _297
REMARK  128  A    between atoms: _300  and  _302
REMARK  129  A    between atoms: _302  and  _303
REMARK  130  A    between atoms: _302  and  _305
REMARK  131  A    between atoms: _305  and  _306
REMARK  132  A    between atoms: _306  and  _307
REMARK  133  A    between atoms: _309  and  _311
REMARK  134  A    between atoms: _311  and  _312
REMARK  135  A    between atoms: _311  and  _314
REMARK  136  A    between atoms: _314  and  _315
REMARK  137  A    between atoms: _315  and  _316
REMARK  138  A    between atoms: _319  and  _321
REMARK  139  A    between atoms: _321  and  _322
REMARK  140  A    between atoms: _321  and  _324
REMARK  141  A    between atoms: _324  and  _325
REMARK  142  A    between atoms: _328  and  _330
REMARK  143  A    between atoms: _330  and  _331
REMARK  144  A    between atoms: _330  and  _333
REMARK  145  A    between atoms: _333  and  _334
REMARK  146  A    between atoms: _334  and  _335
REMARK  147  A    between atoms: _337  and  _339
REMARK  148  A    between atoms: _339  and  _340
REMARK  149  A    between atoms: _339  and  _342
REMARK  150  A    between atoms: _342  and  _343
REMARK  151  A    between atoms: _346  and  _348
REMARK  152  A    between atoms: _348  and  _349
REMARK  153  A    between atoms: _352  and  _354
REMARK  154  A    between atoms: _354  and  _355
REMARK  155  A    between atoms: _354  and  _357
REMARK  156  A    between atoms: _357  and  _358
REMARK  157  A    between atoms: _363  and  _365
REMARK  158  A    between atoms: _365  and  _366
REMARK  159  A    between atoms: _365  and  _368
REMARK  160  A    between atoms: _368  and  _369
REMARK  161  A    between atoms: _372  and  _374
REMARK  162  A    between atoms: _374  and  _375
REMARK  163  A    between atoms: _374  and  _377
REMARK  164  A    between atoms: _379  and  _381
REMARK  165  A    between atoms: _381  and  _382
REMARK  166  A    between atoms: _381  and  _384
REMARK  167  A    between atoms: _384  and  _385
REMARK  168  A    between atoms: _385  and  _386
REMARK  169  A    between atoms: _391  and  _393
REMARK  170  A    between atoms: _393  and  _394
REMARK  171  A    between atoms: _393  and  _396
REMARK  172  A    between atoms: _396  and  _397
REMARK  173  A    between atoms: _397  and  _398
REMARK  174  A    between atoms: _404  and  _405
REMARK  175  A    between atoms: _410  and  _412
REMARK  176  A    between atoms: _412  and  _413
REMARK  177  A    between atoms: _412  and  _415
REMARK  178  A    between atoms: _415  and  _416
REMARK  179  A    between atoms: _418  and  _420
REMARK  180  A    between atoms: _420  and  _421
REMARK  181  A    between atoms: _420  and  _423
REMARK  182  A    between atoms: _423  and  _424
REMARK  183  A    between atoms: _429  and  _431
REMARK  184  A    between atoms: _431  and  _432
REMARK  185  A    between atoms: _431  and  _434
REMARK  186  A    between atoms: _434  and  _435
REMARK  187  A    between atoms: _438  and  _440
REMARK  188  A    between atoms: _440  and  _441
REMARK  189  A    between atoms: _440  and  _443
REMARK  190  A    between atoms: _446  and  _448
REMARK  191  A    between atoms: _448  and  _449
REMARK  192  A    between atoms: _448  and  _451
REMARK  193  A    between atoms: _454  and  _456
REMARK  194  A    between atoms: _456  and  _457
REMARK  195  A    between atoms: _456  and  _459
REMARK  196  A    between atoms: _459  and  _460
REMARK  197  A    between atoms: _460  and  _461
REMARK  198  A    between atoms: _461  and  _462
REMARK  199  A    between atoms: _462  and  _463
REMARK  200  A    between atoms: _467  and  _469
REMARK  201  A    between atoms: _469  and  _470
REMARK  202  A    between atoms: _469  and  _472
REMARK  203  A    between atoms: _472  and  _473
REMARK  204  A    between atoms: _476  and  _478
REMARK  205  A    between atoms: _478  and  _479
REMARK  206  A    between atoms: _478  and  _481
REMARK  207  A    between atoms: _481  and  _482
REMARK  208  A    between atoms: _485  and  _487
REMARK  209  A    between atoms: _487  and  _488
REMARK  210  A    between atoms: _487  and  _490
REMARK  211  A    between atoms: _490  and  _491
REMARK  212  A    between atoms: _494  and  _496
REMARK  213  A    between atoms: _496  and  _497
REMARK  214  A    between atoms: _496  and  _499
REMARK  215  A    between atoms: _499  and  _500
REMARK                            x       y       z     vdW  Elec       q    Type
REMARK                         _______ _______ _______ _____ _____    ______ ____
ROOT
ATOM      1  O   HOH     1      25.422  12.960  30.944  0.00  0.00    +0.000 OA
ENDROOT
TORSDOF 0
REMARK  Name = ../refined-set-2016/2o0u/2o0u_pocket.pdb
REMARK  215 active torsions:
REMARK  status: ('A' for Active; 'I' for Inactive)
REMARK    1  A    between atoms: _1  and  _3
REMARK    2  A    between atoms: _3  and  _4
REMARK    3  A    between atoms: _3  and  _6
REMARK    4  A    between atoms: _6  and  _7
REMARK    5  A    between atoms: _7  and  _8
REMARK    6  A    between atoms: _8  and  _9
REMARK    7  A    between atoms: _9  and  _10
REMARK    8  A    between atoms: _15  and  _16
REMARK    9  A    between atoms: _21  and  _23
REMARK   10  A    between atoms: _23  and  _24
REMARK   11  A    between atoms: _23  and  _26
REMARK   12  A    between atoms: _26  and  _27
REMARK   13  A    between atoms: _30  and  _32
REMARK   14  A    between atoms: _32  and  _33
REMARK   15  A    between atoms: _35  and  _37
REMARK   16  A    between atoms: _37  and  _38
REMARK   17  A    between atoms: _37  and  _40
REMARK   18  A    between atoms: _40  and  _41
REMARK   19  A    between atoms: _43  and  _45
REMARK   20  A    between atoms: _45  and  _46
REMARK   21  A    between atoms: _48  and  _50
REMARK   22  A    between atoms: _50  and  _51
REMARK   23  A    between atoms: _50  and  _53
REMARK   24  A    between atoms: _53  and  _54
REMARK   25  A    between atoms: _54  and  _55
REMARK   26  A    between atoms: _60  and  _62
REMARK   27  A    between atoms: _62  and  _63
REMARK   28  A    between atoms: _65  and  _67
REMARK   29  A    between atoms: _67  and  _68
REMARK   30  A    between atoms: _67  and  _70
REMARK   31  A    between atoms: _70  and  _71
REMARK   32  A    between atoms: _74  and  _76
REMARK   33  A    between atoms: _76  and  _77
REMARK   34  A    between atoms: _76  and  _79
REMARK   35  A    between atoms: _82  and  _84
REMARK   36  A    between atoms: _84  and  _85
REMARK   37  A    between atoms: _84  and  _87
REMARK   38  A    between atoms: _89  and  _91
REMARK   39  A    between atoms: _91  and  _92
REMARK   40  A    between atoms: _95  and  _97
REMARK   41  A    between atoms: _97  and  _98
REMARK   42  A    between atoms: _101  and  _103
REMARK   43  A    between atoms: _103  and  _104
REMARK   44  A    between atoms: _103  and  _106
REMARK   45  A    between atoms: _106  and  _107
REMARK   46  A    between atoms: _112  and  _114
REMARK   47  A    between atoms: _114  and  _115
REMARK   48  A    between atoms: _114  and  _117
REMARK   49  A    between atoms: _120  and  _122
REMARK   50  A    between atoms: _122  and  _123
REMARK   51  A    between atoms: _126  and  _128
REMARK   52  A    between atoms: _128  and  _129
REMARK   53  A    between atoms: _128  and  _131
REMARK   54  A    between atoms: _131  and  _132
REMARK   55  A    between atoms: _135  and  _137
REMARK   56  A    between atoms: _137  and  _138
REMARK   57  A    between atoms: _137  and  _140
REMARK   58  A    between atoms: _140  and  _141
REMARK   59  A    between atoms: _141  and  _142
REMARK   60  A    between atoms: _142  and  _143
REMARK   61  A    between atoms: _143  and  _144
REMARK   62  A    between atoms: _148  and  _150
REMARK   63  A    between atoms: _150  and  _151
REMARK   64  A    between atoms: _150  and  _153
REMARK   65  A    between atoms: _153  and  _154
REMARK   66  A    between atoms: _154  and  _155
REMARK   67  A    between atoms: _155  and  _156
REMARK   68  A    between atoms: _156  and  _157
REMARK   69  A    between atoms: _161  and  _163
REMARK   70  A    between atoms: _163  and  _164
REMARK   71  A    between atoms: _163  and  _166
REMARK   72  A    between atoms: _166  and  _167
REMARK   73  A    between atoms: _170  and  _172
REMARK   74  A    between atoms: _172  and  _173
REMARK   75  A    between atoms: _172  and  _175
REMARK   76  A    between atoms: _175  and  _176
REMARK   77  A    between atoms: _176  and  _177
REMARK   78  A    between atoms: _177  and  _178
REMARK   79  A    between atoms: _187  and  _189
REMARK   80  A    between atoms: _189  and  _190
REMARK   81  A    between atoms: _189  and  _192
REMARK   82  A    between atoms: _192  and  _193
REMARK   83  A    between atoms: _193  and  _194
REMARK   84  A    between atoms: _197  and  _199
REMARK   85  A    between atoms: _199  and  _200
REMARK   86  A    between atoms: _199  and  _202
REMARK   87  A    between atoms: _202  and  _203
REMARK   88  A    between atoms: _206  and  _208
REMARK   89  A    between atoms: _208  and  _209
REMARK   90  A    between atoms: _208  and  _211
REMARK   91  A    between atoms: _211  and  _212
REMARK   92  A    between atoms: _212  and  _213
REMARK   93  A    between atoms: _215  and  _217
REMARK   94  A    between atoms: _217  and  _218
REMARK   95  A    between atoms: _217  and  _220
REMARK   96  A    between atoms: _220  and  _221
REMARK   97  A    between atoms: _224  and  _226
REMARK   98  A    between atoms: _226  and  _227
REMARK   99  A    between atoms: _226  and  _229
REMARK  100  A    between atoms: _229  and  _230
REMARK  101  A    between atoms: _232  and  _234
REMARK  102  A    between atoms: _234  and  _235
REMARK  103  A    between atoms: _234  and  _237
REMARK  104  A    between atoms: _237  and  _238
REMARK  105  A    between atoms: _241  and  _243
REMARK  106  A    between atoms: _243  and  _244
REMARK  107  A    between atoms: _243  and  _246
REMARK  108  A    between atoms: _246  and  _247
REMARK  109  A    between atoms: _250  and  _252
REMARK  110  A    between atoms: _252  and  _253
REMARK  111  A    between atoms: _252  and  _255
REMARK  112  A    between atoms: _255  and  _256
REMARK  113  A    between atoms: _261  and  _263
REMARK  114  A    between atoms: _263  and  _264
REMARK  115  A    between atoms: _263  and  _266
REMARK  116  A    between atoms: _269  and  _271
REMARK  117  A    between atoms: _271  and  _272
REMARK  118  A    between atoms: _271  and  _274
REMARK  119  A    between atoms: _274  and  _275
REMARK  120  A    between atoms: _280  and  _281
REMARK  121  A    between atoms: _283  and  _285
REMARK  122  A    between atoms: _285  and  _286
REMARK  123  A    between atoms: _285  and  _288
REMARK  124  A    between atoms: _288  and  _289
REMARK  125  A    between atoms: _292  and  _294
REMARK  126  A    between atoms: _294  and  _295
REMARK  127  A    between atoms: _294  and  _297
REMARK  128  A    between atoms: _300  and  _302
REMARK  129  A    between atoms: _302  and  _303
REMARK  130  A    between atoms: _302  and  _305
REMARK  131  A    between atoms: _305  and  _306
REMARK  132  A    between atoms: _306  and  _307
REMARK  133  A    between atoms: _309  and  _311
REMARK  134  A    between atoms: _311  and  _312
REMARK  135  A    between atoms: _311  and  _314
REMARK  136  A    between atoms: _314  and  _315
REMARK  137  A    between atoms: _315  and  _316
REMARK  138  A    between atoms: _319  and  _321
REMARK  139  A    between atoms: _321  and  _322
REMARK  140  A    between atoms: _321  and  _324
REMARK  141  A    between atoms: _324  and  _325
REMARK  142  A    between atoms: _328  and  _330
REMARK  143  A    between atoms: _330  and  _331
REMARK  144  A    between atoms: _330  and  _333
REMARK  145  A    between atoms: _333  and  _334
REMARK  146  A    between atoms: _334  and  _335
REMARK  147  A    between atoms: _337  and  _339
REMARK  148  A    between atoms: _339  and  _340
REMARK  149  A    between atoms: _339  and  _342
REMARK  150  A    between atoms: _342  and  _343
REMARK  151  A    between atoms: _346  and  _348
REMARK  152  A    between atoms: _348  and  _349
REMARK  153  A    between atoms: _352  and  _354
REMARK  154  A    between atoms: _354  and  _355
REMARK  155  A    between atoms: _354  and  _357
REMARK  156  A    between atoms: _357  and  _358
REMARK  157  A    between atoms: _363  and  _365
REMARK  158  A    between atoms: _365  and  _366
REMARK  159  A    between atoms: _365  and  _368
REMARK  160  A    between atoms: _368  and  _369
REMARK  161  A    between atoms: _372  and  _374
REMARK  162  A    between atoms: _374  and  _375
REMARK  163  A    between atoms: _374  and  _377
REMARK  164  A    between atoms: _379  and  _381
REMARK  165  A    between atoms: _381  and  _382
REMARK  166  A    between atoms: _381  and  _384
REMARK  167  A    between atoms: _384  and  _385
REMARK  168  A    between atoms: _385  and  _386
REMARK  169  A    between atoms: _391  and  _393
REMARK  170  A    between atoms: _393  and  _394
REMARK  171  A    between atoms: _393  and  _396
REMARK  172  A    between atoms: _396  and  _397
REMARK  173  A    between atoms: _397  and  _398
REMARK  174  A    between atoms: _404  and  _405
REMARK  175  A    between atoms: _410  and  _412
REMARK  176  A    between atoms: _412  and  _413
REMARK  177  A    between atoms: _412  and  _415
REMARK  178  A    between atoms: _415  and  _416
REMARK  179  A    between atoms: _418  and  _420
REMARK  180  A    between atoms: _420  and  _421
REMARK  181  A    between atoms: _420  and  _423
REMARK  182  A    between atoms: _423  and  _424
REMARK  183  A    between atoms: _429  and  _431
REMARK  184  A    between atoms: _431  and  _432
REMARK  185  A    between atoms: _431  and  _434
REMARK  186  A    between atoms: _434  and  _435
REMARK  187  A    between atoms: _438  and  _440
REMARK  188  A    between atoms: _440  and  _441
REMARK  189  A    between atoms: _440  and  _443
REMARK  190  A    between atoms: _446  and  _448
REMARK  191  A    between atoms: _448  and  _449
REMARK  192  A    between atoms: _448  and  _451
REMARK  193  A    between atoms: _454  and  _456
REMARK  194  A    between atoms: _456  and  _457
REMARK  195  A    between atoms: _456  and  _459
REMARK  196  A    between atoms: _459  and  _460
REMARK  197  A    between atoms: _460  and  _461
REMARK  198  A    between atoms: _461  and  _462
REMARK  199  A    between atoms: _462  and  _463
REMARK  200  A    between atoms: _467  and  _469
REMARK  201  A    between atoms: _469  and  _470
REMARK  202  A    between atoms: _469  and  _472
REMARK  203  A    between atoms: _472  and  _473
REMARK  204  A    between atoms: _476  and  _478
REMARK  205  A    between atoms: _478  and  _479
REMARK  206  A    between atoms: _478  and  _481
REMARK  207  A    between atoms: _481  and  _482
REMARK  208  A    between atoms: _485  and  _487
REMARK  209  A    between atoms: _487  and  _488
REMARK  210  A    between atoms: _487  and  _490
REMARK  211  A    between atoms: _490  and  _491
REMARK  212  A    between atoms: _494  and  _496
REMARK  213  A    between atoms: _496  and  _497
REMARK  214  A    between atoms: _496  and  _499
REMARK  215  A    between atoms: _499  and  _500
REMARK                            x       y       z     vdW  Elec       q    Type
REMARK                         _______ _______ _______ _____ _____    ______ ____
ROOT
ATOM      1  O   HOH     1      24.080   2.141  33.122  0.00  0.00    +0.000 OA
ENDROOT
TORSDOF 0
REMARK  Name = ../refined-set-2016/2o0u/2o0u_pocket.pdb
REMARK  215 active torsions:
REMARK  status: ('A' for Active; 'I' for Inactive)
REMARK    1  A    between atoms: _1  and  _3
REMARK    2  A    between atoms: _3  and  _4
REMARK    3  A    between atoms: _3  and  _6
REMARK    4  A    between atoms: _6  and  _7
REMARK    5  A    between atoms: _7  and  _8
REMARK    6  A    between atoms: _8  and  _9
REMARK    7  A    between atoms: _9  and  _10
REMARK    8  A    between atoms: _15  and  _16
REMARK    9  A    between atoms: _21  and  _23
REMARK   10  A    between atoms: _23  and  _24
REMARK   11  A    between atoms: _23  and  _26
REMARK   12  A    between atoms: _26  and  _27
REMARK   13  A    between atoms: _30  and  _32
REMARK   14  A    between atoms: _32  and  _33
REMARK   15  A    between atoms: _35  and  _37
REMARK   16  A    between atoms: _37  and  _38
REMARK   17  A    between atoms: _37  and  _40
REMARK   18  A    between atoms: _40  and  _41
REMARK   19  A    between atoms: _43  and  _45
REMARK   20  A    between atoms: _45  and  _46
REMARK   21  A    between atoms: _48  and  _50
REMARK   22  A    between atoms: _50  and  _51
REMARK   23  A    between atoms: _50  and  _53
REMARK   24  A    between atoms: _53  and  _54
REMARK   25  A    between atoms: _54  and  _55
REMARK   26  A    between atoms: _60  and  _62
REMARK   27  A    between atoms: _62  and  _63
REMARK   28  A    between atoms: _65  and  _67
REMARK   29  A    between atoms: _67  and  _68
REMARK   30  A    between atoms: _67  and  _70
REMARK   31  A    between atoms: _70  and  _71
REMARK   32  A    between atoms: _74  and  _76
REMARK   33  A    between atoms: _76  and  _77
REMARK   34  A    between atoms: _76  and  _79
REMARK   35  A    between atoms: _82  and  _84
REMARK   36  A    between atoms: _84  and  _85
REMARK   37  A    between atoms: _84  and  _87
REMARK   38  A    between atoms: _89  and  _91
REMARK   39  A    between atoms: _91  and  _92
REMARK   40  A    between atoms: _95  and  _97
REMARK   41  A    between atoms: _97  and  _98
REMARK   42  A    between atoms: _101  and  _103
REMARK   43  A    between atoms: _103  and  _104
REMARK   44  A    between atoms: _103  and  _106
REMARK   45  A    between atoms: _106  and  _107
REMARK   46  A    between atoms: _112  and  _114
REMARK   47  A    between atoms: _114  and  _115
REMARK   48  A    between atoms: _114  and  _117
REMARK   49  A    between atoms: _120  and  _122
REMARK   50  A    between atoms: _122  and  _123
REMARK   51  A    between atoms: _126  and  _128
REMARK   52  A    between atoms: _128  and  _129
REMARK   53  A    between atoms: _128  and  _131
REMARK   54  A    between atoms: _131  and  _132
REMARK   55  A    between atoms: _135  and  _137
REMARK   56  A    between atoms: _137  and  _138
REMARK   57  A    between atoms: _137  and  _140
REMARK   58  A    between atoms: _140  and  _141
REMARK   59  A    between atoms: _141  and  _142
REMARK   60  A    between atoms: _142  and  _143
REMARK   61  A    between atoms: _143  and  _144
REMARK   62  A    between atoms: _148  and  _150
REMARK   63  A    between atoms: _150  and  _151
REMARK   64  A    between atoms: _150  and  _153
REMARK   65  A    between atoms: _153  and  _154
REMARK   66  A    between atoms: _154  and  _155
REMARK   67  A    between atoms: _155  and  _156
REMARK   68  A    between atoms: _156  and  _157
REMARK   69  A    between atoms: _161  and  _163
REMARK   70  A    between atoms: _163  and  _164
REMARK   71  A    between atoms: _163  and  _166
REMARK   72  A    between atoms: _166  and  _167
REMARK   73  A    between atoms: _170  and  _172
REMARK   74  A    between atoms: _172  and  _173
REMARK   75  A    between atoms: _172  and  _175
REMARK   76  A    between atoms: _175  and  _176
REMARK   77  A    between atoms: _176  and  _177
REMARK   78  A    between atoms: _177  and  _178
REMARK   79  A    between atoms: _187  and  _189
REMARK   80  A    between atoms: _189  and  _190
REMARK   81  A    between atoms: _189  and  _192
REMARK   82  A    between atoms: _192  and  _193
REMARK   83  A    between atoms: _193  and  _194
REMARK   84  A    between atoms: _197  and  _199
REMARK   85  A    between atoms: _199  and  _200
REMARK   86  A    between atoms: _199  and  _202
REMARK   87  A    between atoms: _202  and  _203
REMARK   88  A    between atoms: _206  and  _208
REMARK   89  A    between atoms: _208  and  _209
REMARK   90  A    between atoms: _208  and  _211
REMARK   91  A    between atoms: _211  and  _212
REMARK   92  A    between atoms: _212  and  _213
REMARK   93  A    between atoms: _215  and  _217
REMARK   94  A    between atoms: _217  and  _218
REMARK   95  A    between atoms: _217  and  _220
REMARK   96  A    between atoms: _220  and  _221
REMARK   97  A    between atoms: _224  and  _226
REMARK   98  A    between atoms: _226  and  _227
REMARK   99  A    between atoms: _226  and  _229
REMARK  100  A    between atoms: _229  and  _230
REMARK  101  A    between atoms: _232  and  _234
REMARK  102  A    between atoms: _234  and  _235
REMARK  103  A    between atoms: _234  and  _237
REMARK  104  A    between atoms: _237  and  _238
REMARK  105  A    between atoms: _241  and  _243
REMARK  106  A    between atoms: _243  and  _244
REMARK  107  A    between atoms: _243  and  _246
REMARK  108  A    between atoms: _246  and  _247
REMARK  109  A    between atoms: _250  and  _252
REMARK  110  A    between atoms: _252  and  _253
REMARK  111  A    between atoms: _252  and  _255
REMARK  112  A    between atoms: _255  and  _256
REMARK  113  A    between atoms: _261  and  _263
REMARK  114  A    between atoms: _263  and  _264
REMARK  115  A    between atoms: _263  and  _266
REMARK  116  A    between atoms: _269  and  _271
REMARK  117  A    between atoms: _271  and  _272
REMARK  118  A    between atoms: _271  and  _274
REMARK  119  A    between atoms: _274  and  _275
REMARK  120  A    between atoms: _280  and  _281
REMARK  121  A    between atoms: _283  and  _285
REMARK  122  A    between atoms: _285  and  _286
REMARK  123  A    between atoms: _285  and  _288
REMARK  124  A    between atoms: _288  and  _289
REMARK  125  A    between atoms: _292  and  _294
REMARK  126  A    between atoms: _294  and  _295
REMARK  127  A    between atoms: _294  and  _297
REMARK  128  A    between atoms: _300  and  _302
REMARK  129  A    between atoms: _302  and  _303
REMARK  130  A    between atoms: _302  and  _305
REMARK  131  A    between atoms: _305  and  _306
REMARK  132  A    between atoms: _306  and  _307
REMARK  133  A    between atoms: _309  and  _311
REMARK  134  A    between atoms: _311  and  _312
REMARK  135  A    between atoms: _311  and  _314
REMARK  136  A    between atoms: _314  and  _315
REMARK  137  A    between atoms: _315  and  _316
REMARK  138  A    between atoms: _319  and  _321
REMARK  139  A    between atoms: _321  and  _322
REMARK  140  A    between atoms: _321  and  _324
REMARK  141  A    between atoms: _324  and  _325
REMARK  142  A    between atoms: _328  and  _330
REMARK  143  A    between atoms: _330  and  _331
REMARK  144  A    between atoms: _330  and  _333
REMARK  145  A    between atoms: _333  and  _334
REMARK  146  A    between atoms: _334  and  _335
REMARK  147  A    between atoms: _337  and  _339
REMARK  148  A    between atoms: _339  and  _340
REMARK  149  A    between atoms: _339  and  _342
REMARK  150  A    between atoms: _342  and  _343
REMARK  151  A    between atoms: _346  and  _348
REMARK  152  A    between atoms: _348  and  _349
REMARK  153  A    between atoms: _352  and  _354
REMARK  154  A    between atoms: _354  and  _355
REMARK  155  A    between atoms: _354  and  _357
REMARK  156  A    between atoms: _357  and  _358
REMARK  157  A    between atoms: _363  and  _365
REMARK  158  A    between atoms: _365  and  _366
REMARK  159  A    between atoms: _365  and  _368
REMARK  160  A    between atoms: _368  and  _369
REMARK  161  A    between atoms: _372  and  _374
REMARK  162  A    between atoms: _374  and  _375
REMARK  163  A    between atoms: _374  and  _377
REMARK  164  A    between atoms: _379  and  _381
REMARK  165  A    between atoms: _381  and  _382
REMARK  166  A    between atoms: _381  and  _384
REMARK  167  A    between atoms: _384  and  _385
REMARK  168  A    between atoms: _385  and  _386
REMARK  169  A    between atoms: _391  and  _393
REMARK  170  A    between atoms: _393  and  _394
REMARK  171  A    between atoms: _393  and  _396
REMARK  172  A    between atoms: _396  and  _397
REMARK  173  A    between atoms: _397  and  _398
REMARK  174  A    between atoms: _404  and  _405
REMARK  175  A    between atoms: _410  and  _412
REMARK  176  A    between atoms: _412  and  _413
REMARK  177  A    between atoms: _412  and  _415
REMARK  178  A    between atoms: _415  and  _416
REMARK  179  A    between atoms: _418  and  _420
REMARK  180  A    between atoms: _420  and  _421
REMARK  181  A    between atoms: _420  and  _423
REMARK  182  A    between atoms: _423  and  _424
REMARK  183  A    between atoms: _429  and  _431
REMARK  184  A    between atoms: _431  and  _432
REMARK  185  A    between atoms: _431  and  _434
REMARK  186  A    between atoms: _434  and  _435
REMARK  187  A    between atoms: _438  and  _440
REMARK  188  A    between atoms: _440  and  _441
REMARK  189  A    between atoms: _440  and  _443
REMARK  190  A    between atoms: _446  and  _448
REMARK  191  A    between atoms: _448  and  _449
REMARK  192  A    between atoms: _448  and  _451
REMARK  193  A    between atoms: _454  and  _456
REMARK  194  A    between atoms: _456  and  _457
REMARK  195  A    between atoms: _456  and  _459
REMARK  196  A    between atoms: _459  and  _460
REMARK  197  A    between atoms: _460  and  _461
REMARK  198  A    between atoms: _461  and  _462
REMARK  199  A    between atoms: _462  and  _463
REMARK  200  A    between atoms: _467  and  _469
REMARK  201  A    between atoms: _469  and  _470
REMARK  202  A    between atoms: _469  and  _472
REMARK  203  A    between atoms: _472  and  _473
REMARK  204  A    between atoms: _476  and  _478
REMARK  205  A    between atoms: _478  and  _479
REMARK  206  A    between atoms: _478  and  _481
REMARK  207  A    between atoms: _481  and  _482
REMARK  208  A    between atoms: _485  and  _487
REMARK  209  A    between atoms: _487  and  _488
REMARK  210  A    between atoms: _487  and  _490
REMARK  211  A    between atoms: _490  and  _491
REMARK  212  A    between atoms: _494  and  _496
REMARK  213  A    between atoms: _496  and  _497
REMARK  214  A    between atoms: _496  and  _499
REMARK  215  A    between atoms: _499  and  _500
REMARK                            x       y       z     vdW  Elec       q    Type
REMARK                         _______ _______ _______ _____ _____    ______ ____
ROOT
ATOM      1  O   HOH     1      13.817   5.793  33.390  0.00  0.00    +0.000 OA
ENDROOT
TORSDOF 0
REMARK  Name = ../refined-set-2016/2o0u/2o0u_pocket.pdb
REMARK  215 active torsions:
REMARK  status: ('A' for Active; 'I' for Inactive)
REMARK    1  A    between atoms: _1  and  _3
REMARK    2  A    between atoms: _3  and  _4
REMARK    3  A    between atoms: _3  and  _6
REMARK    4  A    between atoms: _6  and  _7
REMARK    5  A    between atoms: _7  and  _8
REMARK    6  A    between atoms: _8  and  _9
REMARK    7  A    between atoms: _9  and  _10
REMARK    8  A    between atoms: _15  and  _16
REMARK    9  A    between atoms: _21  and  _23
REMARK   10  A    between atoms: _23  and  _24
REMARK   11  A    between atoms: _23  and  _26
REMARK   12  A    between atoms: _26  and  _27
REMARK   13  A    between atoms: _30  and  _32
REMARK   14  A    between atoms: _32  and  _33
REMARK   15  A    between atoms: _35  and  _37
REMARK   16  A    between atoms: _37  and  _38
REMARK   17  A    between atoms: _37  and  _40
REMARK   18  A    between atoms: _40  and  _41
REMARK   19  A    between atoms: _43  and  _45
REMARK   20  A    between atoms: _45  and  _46
REMARK   21  A    between atoms: _48  and  _50
REMARK   22  A    between atoms: _50  and  _51
REMARK   23  A    between atoms: _50  and  _53
REMARK   24  A    between atoms: _53  and  _54
REMARK   25  A    between atoms: _54  and  _55
REMARK   26  A    between atoms: _60  and  _62
REMARK   27  A    between atoms: _62  and  _63
REMARK   28  A    between atoms: _65  and  _67
REMARK   29  A    between atoms: _67  and  _68
REMARK   30  A    between atoms: _67  and  _70
REMARK   31  A    between atoms: _70  and  _71
REMARK   32  A    between atoms: _74  and  _76
REMARK   33  A    between atoms: _76  and  _77
REMARK   34  A    between atoms: _76  and  _79
REMARK   35  A    between atoms: _82  and  _84
REMARK   36  A    between atoms: _84  and  _85
REMARK   37  A    between atoms: _84  and  _87
REMARK   38  A    between atoms: _89  and  _91
REMARK   39  A    between atoms: _91  and  _92
REMARK   40  A    between atoms: _95  and  _97
REMARK   41  A    between atoms: _97  and  _98
REMARK   42  A    between atoms: _101  and  _103
REMARK   43  A    between atoms: _103  and  _104
REMARK   44  A    between atoms: _103  and  _106
REMARK   45  A    between atoms: _106  and  _107
REMARK   46  A    between atoms: _112  and  _114
REMARK   47  A    between atoms: _114  and  _115
REMARK   48  A    between atoms: _114  and  _117
REMARK   49  A    between atoms: _120  and  _122
REMARK   50  A    between atoms: _122  and  _123
REMARK   51  A    between atoms: _126  and  _128
REMARK   52  A    between atoms: _128  and  _129
REMARK   53  A    between atoms: _128  and  _131
REMARK   54  A    between atoms: _131  and  _132
REMARK   55  A    between atoms: _135  and  _137
REMARK   56  A    between atoms: _137  and  _138
REMARK   57  A    between atoms: _137  and  _140
REMARK   58  A    between atoms: _140  and  _141
REMARK   59  A    between atoms: _141  and  _142
REMARK   60  A    between atoms: _142  and  _143
REMARK   61  A    between atoms: _143  and  _144
REMARK   62  A    between atoms: _148  and  _150
REMARK   63  A    between atoms: _150  and  _151
REMARK   64  A    between atoms: _150  and  _153
REMARK   65  A    between atoms: _153  and  _154
REMARK   66  A    between atoms: _154  and  _155
REMARK   67  A    between atoms: _155  and  _156
REMARK   68  A    between atoms: _156  and  _157
REMARK   69  A    between atoms: _161  and  _163
REMARK   70  A    between atoms: _163  and  _164
REMARK   71  A    between atoms: _163  and  _166
REMARK   72  A    between atoms: _166  and  _167
REMARK   73  A    between atoms: _170  and  _172
REMARK   74  A    between atoms: _172  and  _173
REMARK   75  A    between atoms: _172  and  _175
REMARK   76  A    between atoms: _175  and  _176
REMARK   77  A    between atoms: _176  and  _177
REMARK   78  A    between atoms: _177  and  _178
REMARK   79  A    between atoms: _187  and  _189
REMARK   80  A    between atoms: _189  and  _190
REMARK   81  A    between atoms: _189  and  _192
REMARK   82  A    between atoms: _192  and  _193
REMARK   83  A    between atoms: _193  and  _194
REMARK   84  A    between atoms: _197  and  _199
REMARK   85  A    between atoms: _199  and  _200
REMARK   86  A    between atoms: _199  and  _202
REMARK   87  A    between atoms: _202  and  _203
REMARK   88  A    between atoms: _206  and  _208
REMARK   89  A    between atoms: _208  and  _209
REMARK   90  A    between atoms: _208  and  _211
REMARK   91  A    between atoms: _211  and  _212
REMARK   92  A    between atoms: _212  and  _213
REMARK   93  A    between atoms: _215  and  _217
REMARK   94  A    between atoms: _217  and  _218
REMARK   95  A    between atoms: _217  and  _220
REMARK   96  A    between atoms: _220  and  _221
REMARK   97  A    between atoms: _224  and  _226
REMARK   98  A    between atoms: _226  and  _227
REMARK   99  A    between atoms: _226  and  _229
REMARK  100  A    between atoms: _229  and  _230
REMARK  101  A    between atoms: _232  and  _234
REMARK  102  A    between atoms: _234  and  _235
REMARK  103  A    between atoms: _234  and  _237
REMARK  104  A    between atoms: _237  and  _238
REMARK  105  A    between atoms: _241  and  _243
REMARK  106  A    between atoms: _243  and  _244
REMARK  107  A    between atoms: _243  and  _246
REMARK  108  A    between atoms: _246  and  _247
REMARK  109  A    between atoms: _250  and  _252
REMARK  110  A    between atoms: _252  and  _253
REMARK  111  A    between atoms: _252  and  _255
REMARK  112  A    between atoms: _255  and  _256
REMARK  113  A    between atoms: _261  and  _263
REMARK  114  A    between atoms: _263  and  _264
REMARK  115  A    between atoms: _263  and  _266
REMARK  116  A    between atoms: _269  and  _271
REMARK  117  A    between atoms: _271  and  _272
REMARK  118  A    between atoms: _271  and  _274
REMARK  119  A    between atoms: _274  and  _275
REMARK  120  A    between atoms: _280  and  _281
REMARK  121  A    between atoms: _283  and  _285
REMARK  122  A    between atoms: _285  and  _286
REMARK  123  A    between atoms: _285  and  _288
REMARK  124  A    between atoms: _288  and  _289
REMARK  125  A    between atoms: _292  and  _294
REMARK  126  A    between atoms: _294  and  _295
REMARK  127  A    between atoms: _294  and  _297
REMARK  128  A    between atoms: _300  and  _302
REMARK  129  A    between atoms: _302  and  _303
REMARK  130  A    between atoms: _302  and  _305
REMARK  131  A    between atoms: _305  and  _306
REMARK  132  A    between atoms: _306  and  _307
REMARK  133  A    between atoms: _309  and  _311
REMARK  134  A    between atoms: _311  and  _312
REMARK  135  A    between atoms: _311  and  _314
REMARK  136  A    between atoms: _314  and  _315
REMARK  137  A    between atoms: _315  and  _316
REMARK  138  A    between atoms: _319  and  _321
REMARK  139  A    between atoms: _321  and  _322
REMARK  140  A    between atoms: _321  and  _324
REMARK  141  A    between atoms: _324  and  _325
REMARK  142  A    between atoms: _328  and  _330
REMARK  143  A    between atoms: _330  and  _331
REMARK  144  A    between atoms: _330  and  _333
REMARK  145  A    between atoms: _333  and  _334
REMARK  146  A    between atoms: _334  and  _335
REMARK  147  A    between atoms: _337  and  _339
REMARK  148  A    between atoms: _339  and  _340
REMARK  149  A    between atoms: _339  and  _342
REMARK  150  A    between atoms: _342  and  _343
REMARK  151  A    between atoms: _346  and  _348
REMARK  152  A    between atoms: _348  and  _349
REMARK  153  A    between atoms: _352  and  _354
REMARK  154  A    between atoms: _354  and  _355
REMARK  155  A    between atoms: _354  and  _357
REMARK  156  A    between atoms: _357  and  _358
REMARK  157  A    between atoms: _363  and  _365
REMARK  158  A    between atoms: _365  and  _366
REMARK  159  A    between atoms: _365  and  _368
REMARK  160  A    between atoms: _368  and  _369
REMARK  161  A    between atoms: _372  and  _374
REMARK  162  A    between atoms: _374  and  _375
REMARK  163  A    between atoms: _374  and  _377
REMARK  164  A    between atoms: _379  and  _381
REMARK  165  A    between atoms: _381  and  _382
REMARK  166  A    between atoms: _381  and  _384
REMARK  167  A    between atoms: _384  and  _385
REMARK  168  A    between atoms: _385  and  _386
REMARK  169  A    between atoms: _391  and  _393
REMARK  170  A    between atoms: _393  and  _394
REMARK  171  A    between atoms: _393  and  _396
REMARK  172  A    between atoms: _396  and  _397
REMARK  173  A    between atoms: _397  and  _398
REMARK  174  A    between atoms: _404  and  _405
REMARK  175  A    between atoms: _410  and  _412
REMARK  176  A    between atoms: _412  and  _413
REMARK  177  A    between atoms: _412  and  _415
REMARK  178  A    between atoms: _415  and  _416
REMARK  179  A    between atoms: _418  and  _420
REMARK  180  A    between atoms: _420  and  _421
REMARK  181  A    between atoms: _420  and  _423
REMARK  182  A    between atoms: _423  and  _424
REMARK  183  A    between atoms: _429  and  _431
REMARK  184  A    between atoms: _431  and  _432
REMARK  185  A    between atoms: _431  and  _434
REMARK  186  A    between atoms: _434  and  _435
REMARK  187  A    between atoms: _438  and  _440
REMARK  188  A    between atoms: _440  and  _441
REMARK  189  A    between atoms: _440  and  _443
REMARK  190  A    between atoms: _446  and  _448
REMARK  191  A    between atoms: _448  and  _449
REMARK  192  A    between atoms: _448  and  _451
REMARK  193  A    between atoms: _454  and  _456
REMARK  194  A    between atoms: _456  and  _457
REMARK  195  A    between atoms: _456  and  _459
REMARK  196  A    between atoms: _459  and  _460
REMARK  197  A    between atoms: _460  and  _461
REMARK  198  A    between atoms: _461  and  _462
REMARK  199  A    between atoms: _462  and  _463
REMARK  200  A    between atoms: _467  and  _469
REMARK  201  A    between atoms: _469  and  _470
REMARK  202  A    between atoms: _469  and  _472
REMARK  203  A    between atoms: _472  and  _473
REMARK  204  A    between atoms: _476  and  _478
REMARK  205  A    between atoms: _478  and  _479
REMARK  206  A    between atoms: _478  and  _481
REMARK  207  A    between atoms: _481  and  _482
REMARK  208  A    between atoms: _485  and  _487
REMARK  209  A    between atoms: _487  and  _488
REMARK  210  A    between atoms: _487  and  _490
REMARK  211  A    between atoms: _490  and  _491
REMARK  212  A    between atoms: _494  and  _496
REMARK  213  A    between atoms: _496  and  _497
REMARK  214  A    between atoms: _496  and  _499
REMARK  215  A    between atoms: _499  and  _500
REMARK                            x       y       z     vdW  Elec       q    Type
REMARK                         _______ _______ _______ _____ _____    ______ ____
ROOT
ATOM      1  O   HOH     1      15.478   0.361  34.690  0.00  0.00    +0.000 OA
ENDROOT
TORSDOF 0
REMARK  Name = ../refined-set-2016/2o0u/2o0u_pocket.pdb
REMARK  215 active torsions:
REMARK  status: ('A' for Active; 'I' for Inactive)
REMARK    1  A    between atoms: _1  and  _3
REMARK    2  A    between atoms: _3  and  _4
REMARK    3  A    between atoms: _3  and  _6
REMARK    4  A    between atoms: _6  and  _7
REMARK    5  A    between atoms: _7  and  _8
REMARK    6  A    between atoms: _8  and  _9
REMARK    7  A    between atoms: _9  and  _10
REMARK    8  A    between atoms: _15  and  _16
REMARK    9  A    between atoms: _21  and  _23
REMARK   10  A    between atoms: _23  and  _24
REMARK   11  A    between atoms: _23  and  _26
REMARK   12  A    between atoms: _26  and  _27
REMARK   13  A    between atoms: _30  and  _32
REMARK   14  A    between atoms: _32  and  _33
REMARK   15  A    between atoms: _35  and  _37
REMARK   16  A    between atoms: _37  and  _38
REMARK   17  A    between atoms: _37  and  _40
REMARK   18  A    between atoms: _40  and  _41
REMARK   19  A    between atoms: _43  and  _45
REMARK   20  A    between atoms: _45  and  _46
REMARK   21  A    between atoms: _48  and  _50
REMARK   22  A    between atoms: _50  and  _51
REMARK   23  A    between atoms: _50  and  _53
REMARK   24  A    between atoms: _53  and  _54
REMARK   25  A    between atoms: _54  and  _55
REMARK   26  A    between atoms: _60  and  _62
REMARK   27  A    between atoms: _62  and  _63
REMARK   28  A    between atoms: _65  and  _67
REMARK   29  A    between atoms: _67  and  _68
REMARK   30  A    between atoms: _67  and  _70
REMARK   31  A    between atoms: _70  and  _71
REMARK   32  A    between atoms: _74  and  _76
REMARK   33  A    between atoms: _76  and  _77
REMARK   34  A    between atoms: _76  and  _79
REMARK   35  A    between atoms: _82  and  _84
REMARK   36  A    between atoms: _84  and  _85
REMARK   37  A    between atoms: _84  and  _87
REMARK   38  A    between atoms: _89  and  _91
REMARK   39  A    between atoms: _91  and  _92
REMARK   40  A    between atoms: _95  and  _97
REMARK   41  A    between atoms: _97  and  _98
REMARK   42  A    between atoms: _101  and  _103
REMARK   43  A    between atoms: _103  and  _104
REMARK   44  A    between atoms: _103  and  _106
REMARK   45  A    between atoms: _106  and  _107
REMARK   46  A    between atoms: _112  and  _114
REMARK   47  A    between atoms: _114  and  _115
REMARK   48  A    between atoms: _114  and  _117
REMARK   49  A    between atoms: _120  and  _122
REMARK   50  A    between atoms: _122  and  _123
REMARK   51  A    between atoms: _126  and  _128
REMARK   52  A    between atoms: _128  and  _129
REMARK   53  A    between atoms: _128  and  _131
REMARK   54  A    between atoms: _131  and  _132
REMARK   55  A    between atoms: _135  and  _137
REMARK   56  A    between atoms: _137  and  _138
REMARK   57  A    between atoms: _137  and  _140
REMARK   58  A    between atoms: _140  and  _141
REMARK   59  A    between atoms: _141  and  _142
REMARK   60  A    between atoms: _142  and  _143
REMARK   61  A    between atoms: _143  and  _144
REMARK   62  A    between atoms: _148  and  _150
REMARK   63  A    between atoms: _150  and  _151
REMARK   64  A    between atoms: _150  and  _153
REMARK   65  A    between atoms: _153  and  _154
REMARK   66  A    between atoms: _154  and  _155
REMARK   67  A    between atoms: _155  and  _156
REMARK   68  A    between atoms: _156  and  _157
REMARK   69  A    between atoms: _161  and  _163
REMARK   70  A    between atoms: _163  and  _164
REMARK   71  A    between atoms: _163  and  _166
REMARK   72  A    between atoms: _166  and  _167
REMARK   73  A    between atoms: _170  and  _172
REMARK   74  A    between atoms: _172  and  _173
REMARK   75  A    between atoms: _172  and  _175
REMARK   76  A    between atoms: _175  and  _176
REMARK   77  A    between atoms: _176  and  _177
REMARK   78  A    between atoms: _177  and  _178
REMARK   79  A    between atoms: _187  and  _189
REMARK   80  A    between atoms: _189  and  _190
REMARK   81  A    between atoms: _189  and  _192
REMARK   82  A    between atoms: _192  and  _193
REMARK   83  A    between atoms: _193  and  _194
REMARK   84  A    between atoms: _197  and  _199
REMARK   85  A    between atoms: _199  and  _200
REMARK   86  A    between atoms: _199  and  _202
REMARK   87  A    between atoms: _202  and  _203
REMARK   88  A    between atoms: _206  and  _208
REMARK   89  A    between atoms: _208  and  _209
REMARK   90  A    between atoms: _208  and  _211
REMARK   91  A    between atoms: _211  and  _212
REMARK   92  A    between atoms: _212  and  _213
REMARK   93  A    between atoms: _215  and  _217
REMARK   94  A    between atoms: _217  and  _218
REMARK   95  A    between atoms: _217  and  _220
REMARK   96  A    between atoms: _220  and  _221
REMARK   97  A    between atoms: _224  and  _226
REMARK   98  A    between atoms: _226  and  _227
REMARK   99  A    between atoms: _226  and  _229
REMARK  100  A    between atoms: _229  and  _230
REMARK  101  A    between atoms: _232  and  _234
REMARK  102  A    between atoms: _234  and  _235
REMARK  103  A    between atoms: _234  and  _237
REMARK  104  A    between atoms: _237  and  _238
REMARK  105  A    between atoms: _241  and  _243
REMARK  106  A    between atoms: _243  and  _244
REMARK  107  A    between atoms: _243  and  _246
REMARK  108  A    between atoms: _246  and  _247
REMARK  109  A    between atoms: _250  and  _252
REMARK  110  A    between atoms: _252  and  _253
REMARK  111  A    between atoms: _252  and  _255
REMARK  112  A    between atoms: _255  and  _256
REMARK  113  A    between atoms: _261  and  _263
REMARK  114  A    between atoms: _263  and  _264
REMARK  115  A    between atoms: _263  and  _266
REMARK  116  A    between atoms: _269  and  _271
REMARK  117  A    between atoms: _271  and  _272
REMARK  118  A    between atoms: _271  and  _274
REMARK  119  A    between atoms: _274  and  _275
REMARK  120  A    between atoms: _280  and  _281
REMARK  121  A    between atoms: _283  and  _285
REMARK  122  A    between atoms: _285  and  _286
REMARK  123  A    between atoms: _285  and  _288
REMARK  124  A    between atoms: _288  and  _289
REMARK  125  A    between atoms: _292  and  _294
REMARK  126  A    between atoms: _294  and  _295
REMARK  127  A    between atoms: _294  and  _297
REMARK  128  A    between atoms: _300  and  _302
REMARK  129  A    between atoms: _302  and  _303
REMARK  130  A    between atoms: _302  and  _305
REMARK  131  A    between atoms: _305  and  _306
REMARK  132  A    between atoms: _306  and  _307
REMARK  133  A    between atoms: _309  and  _311
REMARK  134  A    between atoms: _311  and  _312
REMARK  135  A    between atoms: _311  and  _314
REMARK  136  A    between atoms: _314  and  _315
REMARK  137  A    between atoms: _315  and  _316
REMARK  138  A    between atoms: _319  and  _321
REMARK  139  A    between atoms: _321  and  _322
REMARK  140  A    between atoms: _321  and  _324
REMARK  141  A    between atoms: _324  and  _325
REMARK  142  A    between atoms: _328  and  _330
REMARK  143  A    between atoms: _330  and  _331
REMARK  144  A    between atoms: _330  and  _333
REMARK  145  A    between atoms: _333  and  _334
REMARK  146  A    between atoms: _334  and  _335
REMARK  147  A    between atoms: _337  and  _339
REMARK  148  A    between atoms: _339  and  _340
REMARK  149  A    between atoms: _339  and  _342
REMARK  150  A    between atoms: _342  and  _343
REMARK  151  A    between atoms: _346  and  _348
REMARK  152  A    between atoms: _348  and  _349
REMARK  153  A    between atoms: _352  and  _354
REMARK  154  A    between atoms: _354  and  _355
REMARK  155  A    between atoms: _354  and  _357
REMARK  156  A    between atoms: _357  and  _358
REMARK  157  A    between atoms: _363  and  _365
REMARK  158  A    between atoms: _365  and  _366
REMARK  159  A    between atoms: _365  and  _368
REMARK  160  A    between atoms: _368  and  _369
REMARK  161  A    between atoms: _372  and  _374
REMARK  162  A    between atoms: _374  and  _375
REMARK  163  A    between atoms: _374  and  _377
REMARK  164  A    between atoms: _379  and  _381
REMARK  165  A    between atoms: _381  and  _382
REMARK  166  A    between atoms: _381  and  _384
REMARK  167  A    between atoms: _384  and  _385
REMARK  168  A    between atoms: _385  and  _386
REMARK  169  A    between atoms: _391  and  _393
REMARK  170  A    between atoms: _393  and  _394
REMARK  171  A    between atoms: _393  and  _396
REMARK  172  A    between atoms: _396  and  _397
REMARK  173  A    between atoms: _397  and  _398
REMARK  174  A    between atoms: _404  and  _405
REMARK  175  A    between atoms: _410  and  _412
REMARK  176  A    between atoms: _412  and  _413
REMARK  177  A    between atoms: _412  and  _415
REMARK  178  A    between atoms: _415  and  _416
REMARK  179  A    between atoms: _418  and  _420
REMARK  180  A    between atoms: _420  and  _421
REMARK  181  A    between atoms: _420  and  _423
REMARK  182  A    between atoms: _423  and  _424
REMARK  183  A    between atoms: _429  and  _431
REMARK  184  A    between atoms: _431  and  _432
REMARK  185  A    between atoms: _431  and  _434
REMARK  186  A    between atoms: _434  and  _435
REMARK  187  A    between atoms: _438  and  _440
REMARK  188  A    between atoms: _440  and  _441
REMARK  189  A    between atoms: _440  and  _443
REMARK  190  A    between atoms: _446  and  _448
REMARK  191  A    between atoms: _448  and  _449
REMARK  192  A    between atoms: _448  and  _451
REMARK  193  A    between atoms: _454  and  _456
REMARK  194  A    between atoms: _456  and  _457
REMARK  195  A    between atoms: _456  and  _459
REMARK  196  A    between atoms: _459  and  _460
REMARK  197  A    between atoms: _460  and  _461
REMARK  198  A    between atoms: _461  and  _462
REMARK  199  A    between atoms: _462  and  _463
REMARK  200  A    between atoms: _467  and  _469
REMARK  201  A    between atoms: _469  and  _470
REMARK  202  A    between atoms: _469  and  _472
REMARK  203  A    between atoms: _472  and  _473
REMARK  204  A    between atoms: _476  and  _478
REMARK  205  A    between atoms: _478  and  _479
REMARK  206  A    between atoms: _478  and  _481
REMARK  207  A    between atoms: _481  and  _482
REMARK  208  A    between atoms: _485  and  _487
REMARK  209  A    between atoms: _487  and  _488
REMARK  210  A    between atoms: _487  and  _490
REMARK  211  A    between atoms: _490  and  _491
REMARK  212  A    between atoms: _494  and  _496
REMARK  213  A    between atoms: _496  and  _497
REMARK  214  A    between atoms: _496  and  _499
REMARK  215  A    between atoms: _499  and  _500
REMARK                            x       y       z     vdW  Elec       q    Type
REMARK                         _______ _______ _______ _____ _____    ______ ____
ROOT
ATOM      1  O   HOH     1      24.412  10.784  27.535  0.00  0.00    +0.000 OA
ENDROOT
TORSDOF 0
REMARK  Name = ../refined-set-2016/2o0u/2o0u_pocket.pdb
REMARK  215 active torsions:
REMARK  status: ('A' for Active; 'I' for Inactive)
REMARK    1  A    between atoms: _1  and  _3
REMARK    2  A    between atoms: _3  and  _4
REMARK    3  A    between atoms: _3  and  _6
REMARK    4  A    between atoms: _6  and  _7
REMARK    5  A    between atoms: _7  and  _8
REMARK    6  A    between atoms: _8  and  _9
REMARK    7  A    between atoms: _9  and  _10
REMARK    8  A    between atoms: _15  and  _16
REMARK    9  A    between atoms: _21  and  _23
REMARK   10  A    between atoms: _23  and  _24
REMARK   11  A    between atoms: _23  and  _26
REMARK   12  A    between atoms: _26  and  _27
REMARK   13  A    between atoms: _30  and  _32
REMARK   14  A    between atoms: _32  and  _33
REMARK   15  A    between atoms: _35  and  _37
REMARK   16  A    between atoms: _37  and  _38
REMARK   17  A    between atoms: _37  and  _40
REMARK   18  A    between atoms: _40  and  _41
REMARK   19  A    between atoms: _43  and  _45
REMARK   20  A    between atoms: _45  and  _46
REMARK   21  A    between atoms: _48  and  _50
REMARK   22  A    between atoms: _50  and  _51
REMARK   23  A    between atoms: _50  and  _53
REMARK   24  A    between atoms: _53  and  _54
REMARK   25  A    between atoms: _54  and  _55
REMARK   26  A    between atoms: _60  and  _62
REMARK   27  A    between atoms: _62  and  _63
REMARK   28  A    between atoms: _65  and  _67
REMARK   29  A    between atoms: _67  and  _68
REMARK   30  A    between atoms: _67  and  _70
REMARK   31  A    between atoms: _70  and  _71
REMARK   32  A    between atoms: _74  and  _76
REMARK   33  A    between atoms: _76  and  _77
REMARK   34  A    between atoms: _76  and  _79
REMARK   35  A    between atoms: _82  and  _84
REMARK   36  A    between atoms: _84  and  _85
REMARK   37  A    between atoms: _84  and  _87
REMARK   38  A    between atoms: _89  and  _91
REMARK   39  A    between atoms: _91  and  _92
REMARK   40  A    between atoms: _95  and  _97
REMARK   41  A    between atoms: _97  and  _98
REMARK   42  A    between atoms: _101  and  _103
REMARK   43  A    between atoms: _103  and  _104
REMARK   44  A    between atoms: _103  and  _106
REMARK   45  A    between atoms: _106  and  _107
REMARK   46  A    between atoms: _112  and  _114
REMARK   47  A    between atoms: _114  and  _115
REMARK   48  A    between atoms: _114  and  _117
REMARK   49  A    between atoms: _120  and  _122
REMARK   50  A    between atoms: _122  and  _123
REMARK   51  A    between atoms: _126  and  _128
REMARK   52  A    between atoms: _128  and  _129
REMARK   53  A    between atoms: _128  and  _131
REMARK   54  A    between atoms: _131  and  _132
REMARK   55  A    between atoms: _135  and  _137
REMARK   56  A    between atoms: _137  and  _138
REMARK   57  A    between atoms: _137  and  _140
REMARK   58  A    between atoms: _140  and  _141
REMARK   59  A    between atoms: _141  and  _142
REMARK   60  A    between atoms: _142  and  _143
REMARK   61  A    between atoms: _143  and  _144
REMARK   62  A    between atoms: _148  and  _150
REMARK   63  A    between atoms: _150  and  _151
REMARK   64  A    between atoms: _150  and  _153
REMARK   65  A    between atoms: _153  and  _154
REMARK   66  A    between atoms: _154  and  _155
REMARK   67  A    between atoms: _155  and  _156
REMARK   68  A    between atoms: _156  and  _157
REMARK   69  A    between atoms: _161  and  _163
REMARK   70  A    between atoms: _163  and  _164
REMARK   71  A    between atoms: _163  and  _166
REMARK   72  A    between atoms: _166  and  _167
REMARK   73  A    between atoms: _170  and  _172
REMARK   74  A    between atoms: _172  and  _173
REMARK   75  A    between atoms: _172  and  _175
REMARK   76  A    between atoms: _175  and  _176
REMARK   77  A    between atoms: _176  and  _177
REMARK   78  A    between atoms: _177  and  _178
REMARK   79  A    between atoms: _187  and  _189
REMARK   80  A    between atoms: _189  and  _190
REMARK   81  A    between atoms: _189  and  _192
REMARK   82  A    between atoms: _192  and  _193
REMARK   83  A    between atoms: _193  and  _194
REMARK   84  A    between atoms: _197  and  _199
REMARK   85  A    between atoms: _199  and  _200
REMARK   86  A    between atoms: _199  and  _202
REMARK   87  A    between atoms: _202  and  _203
REMARK   88  A    between atoms: _206  and  _208
REMARK   89  A    between atoms: _208  and  _209
REMARK   90  A    between atoms: _208  and  _211
REMARK   91  A    between atoms: _211  and  _212
REMARK   92  A    between atoms: _212  and  _213
REMARK   93  A    between atoms: _215  and  _217
REMARK   94  A    between atoms: _217  and  _218
REMARK   95  A    between atoms: _217  and  _220
REMARK   96  A    between atoms: _220  and  _221
REMARK   97  A    between atoms: _224  and  _226
REMARK   98  A    between atoms: _226  and  _227
REMARK   99  A    between atoms: _226  and  _229
REMARK  100  A    between atoms: _229  and  _230
REMARK  101  A    between atoms: _232  and  _234
REMARK  102  A    between atoms: _234  and  _235
REMARK  103  A    between atoms: _234  and  _237
REMARK  104  A    between atoms: _237  and  _238
REMARK  105  A    between atoms: _241  and  _243
REMARK  106  A    between atoms: _243  and  _244
REMARK  107  A    between atoms: _243  and  _246
REMARK  108  A    between atoms: _246  and  _247
REMARK  109  A    between atoms: _250  and  _252
REMARK  110  A    between atoms: _252  and  _253
REMARK  111  A    between atoms: _252  and  _255
REMARK  112  A    between atoms: _255  and  _256
REMARK  113  A    between atoms: _261  and  _263
REMARK  114  A    between atoms: _263  and  _264
REMARK  115  A    between atoms: _263  and  _266
REMARK  116  A    between atoms: _269  and  _271
REMARK  117  A    between atoms: _271  and  _272
REMARK  118  A    between atoms: _271  and  _274
REMARK  119  A    between atoms: _274  and  _275
REMARK  120  A    between atoms: _280  and  _281
REMARK  121  A    between atoms: _283  and  _285
REMARK  122  A    between atoms: _285  and  _286
REMARK  123  A    between atoms: _285  and  _288
REMARK  124  A    between atoms: _288  and  _289
REMARK  125  A    between atoms: _292  and  _294
REMARK  126  A    between atoms: _294  and  _295
REMARK  127  A    between atoms: _294  and  _297
REMARK  128  A    between atoms: _300  and  _302
REMARK  129  A    between atoms: _302  and  _303
REMARK  130  A    between atoms: _302  and  _305
REMARK  131  A    between atoms: _305  and  _306
REMARK  132  A    between atoms: _306  and  _307
REMARK  133  A    between atoms: _309  and  _311
REMARK  134  A    between atoms: _311  and  _312
REMARK  135  A    between atoms: _311  and  _314
REMARK  136  A    between atoms: _314  and  _315
REMARK  137  A    between atoms: _315  and  _316
REMARK  138  A    between atoms: _319  and  _321
REMARK  139  A    between atoms: _321  and  _322
REMARK  140  A    between atoms: _321  and  _324
REMARK  141  A    between atoms: _324  and  _325
REMARK  142  A    between atoms: _328  and  _330
REMARK  143  A    between atoms: _330  and  _331
REMARK  144  A    between atoms: _330  and  _333
REMARK  145  A    between atoms: _333  and  _334
REMARK  146  A    between atoms: _334  and  _335
REMARK  147  A    between atoms: _337  and  _339
REMARK  148  A    between atoms: _339  and  _340
REMARK  149  A    between atoms: _339  and  _342
REMARK  150  A    between atoms: _342  and  _343
REMARK  151  A    between atoms: _346  and  _348
REMARK  152  A    between atoms: _348  and  _349
REMARK  153  A    between atoms: _352  and  _354
REMARK  154  A    between atoms: _354  and  _355
REMARK  155  A    between atoms: _354  and  _357
REMARK  156  A    between atoms: _357  and  _358
REMARK  157  A    between atoms: _363  and  _365
REMARK  158  A    between atoms: _365  and  _366
REMARK  159  A    between atoms: _365  and  _368
REMARK  160  A    between atoms: _368  and  _369
REMARK  161  A    between atoms: _372  and  _374
REMARK  162  A    between atoms: _374  and  _375
REMARK  163  A    between atoms: _374  and  _377
REMARK  164  A    between atoms: _379  and  _381
REMARK  165  A    between atoms: _381  and  _382
REMARK  166  A    between atoms: _381  and  _384
REMARK  167  A    between atoms: _384  and  _385
REMARK  168  A    between atoms: _385  and  _386
REMARK  169  A    between atoms: _391  and  _393
REMARK  170  A    between atoms: _393  and  _394
REMARK  171  A    between atoms: _393  and  _396
REMARK  172  A    between atoms: _396  and  _397
REMARK  173  A    between atoms: _397  and  _398
REMARK  174  A    between atoms: _404  and  _405
REMARK  175  A    between atoms: _410  and  _412
REMARK  176  A    between atoms: _412  and  _413
REMARK  177  A    between atoms: _412  and  _415
REMARK  178  A    between atoms: _415  and  _416
REMARK  179  A    between atoms: _418  and  _420
REMARK  180  A    between atoms: _420  and  _421
REMARK  181  A    between atoms: _420  and  _423
REMARK  182  A    between atoms: _423  and  _424
REMARK  183  A    between atoms: _429  and  _431
REMARK  184  A    between atoms: _431  and  _432
REMARK  185  A    between atoms: _431  and  _434
REMARK  186  A    between atoms: _434  and  _435
REMARK  187  A    between atoms: _438  and  _440
REMARK  188  A    between atoms: _440  and  _441
REMARK  189  A    between atoms: _440  and  _443
REMARK  190  A    between atoms: _446  and  _448
REMARK  191  A    between atoms: _448  and  _449
REMARK  192  A    between atoms: _448  and  _451
REMARK  193  A    between atoms: _454  and  _456
REMARK  194  A    between atoms: _456  and  _457
REMARK  195  A    between atoms: _456  and  _459
REMARK  196  A    between atoms: _459  and  _460
REMARK  197  A    between atoms: _460  and  _461
REMARK  198  A    between atoms: _461  and  _462
REMARK  199  A    between atoms: _462  and  _463
REMARK  200  A    between atoms: _467  and  _469
REMARK  201  A    between atoms: _469  and  _470
REMARK  202  A    between atoms: _469  and  _472
REMARK  203  A    between atoms: _472  and  _473
REMARK  204  A    between atoms: _476  and  _478
REMARK  205  A    between atoms: _478  and  _479
REMARK  206  A    between atoms: _478  and  _481
REMARK  207  A    between atoms: _481  and  _482
REMARK  208  A    between atoms: _485  and  _487
REMARK  209  A    between atoms: _487  and  _488
REMARK  210  A    between atoms: _487  and  _490
REMARK  211  A    between atoms: _490  and  _491
REMARK  212  A    between atoms: _494  and  _496
REMARK  213  A    between atoms: _496  and  _497
REMARK  214  A    between atoms: _496  and  _499
REMARK  215  A    between atoms: _499  and  _500
REMARK                            x       y       z     vdW  Elec       q    Type
REMARK                         _______ _______ _______ _____ _____    ______ ____
ROOT
ATOM      1  O   HOH     1      18.794  17.120  31.132  0.00  0.00    +0.000 OA
ENDROOT
TORSDOF 0
REMARK  Name = ../refined-set-2016/2o0u/2o0u_pocket.pdb
REMARK  215 active torsions:
REMARK  status: ('A' for Active; 'I' for Inactive)
REMARK    1  A    between atoms: _1  and  _3
REMARK    2  A    between atoms: _3  and  _4
REMARK    3  A    between atoms: _3  and  _6
REMARK    4  A    between atoms: _6  and  _7
REMARK    5  A    between atoms: _7  and  _8
REMARK    6  A    between atoms: _8  and  _9
REMARK    7  A    between atoms: _9  and  _10
REMARK    8  A    between atoms: _15  and  _16
REMARK    9  A    between atoms: _21  and  _23
REMARK   10  A    between atoms: _23  and  _24
REMARK   11  A    between atoms: _23  and  _26
REMARK   12  A    between atoms: _26  and  _27
REMARK   13  A    between atoms: _30  and  _32
REMARK   14  A    between atoms: _32  and  _33
REMARK   15  A    between atoms: _35  and  _37
REMARK   16  A    between atoms: _37  and  _38
REMARK   17  A    between atoms: _37  and  _40
REMARK   18  A    between atoms: _40  and  _41
REMARK   19  A    between atoms: _43  and  _45
REMARK   20  A    between atoms: _45  and  _46
REMARK   21  A    between atoms: _48  and  _50
REMARK   22  A    between atoms: _50  and  _51
REMARK   23  A    between atoms: _50  and  _53
REMARK   24  A    between atoms: _53  and  _54
REMARK   25  A    between atoms: _54  and  _55
REMARK   26  A    between atoms: _60  and  _62
REMARK   27  A    between atoms: _62  and  _63
REMARK   28  A    between atoms: _65  and  _67
REMARK   29  A    between atoms: _67  and  _68
REMARK   30  A    between atoms: _67  and  _70
REMARK   31  A    between atoms: _70  and  _71
REMARK   32  A    between atoms: _74  and  _76
REMARK   33  A    between atoms: _76  and  _77
REMARK   34  A    between atoms: _76  and  _79
REMARK   35  A    between atoms: _82  and  _84
REMARK   36  A    between atoms: _84  and  _85
REMARK   37  A    between atoms: _84  and  _87
REMARK   38  A    between atoms: _89  and  _91
REMARK   39  A    between atoms: _91  and  _92
REMARK   40  A    between atoms: _95  and  _97
REMARK   41  A    between atoms: _97  and  _98
REMARK   42  A    between atoms: _101  and  _103
REMARK   43  A    between atoms: _103  and  _104
REMARK   44  A    between atoms: _103  and  _106
REMARK   45  A    between atoms: _106  and  _107
REMARK   46  A    between atoms: _112  and  _114
REMARK   47  A    between atoms: _114  and  _115
REMARK   48  A    between atoms: _114  and  _117
REMARK   49  A    between atoms: _120  and  _122
REMARK   50  A    between atoms: _122  and  _123
REMARK   51  A    between atoms: _126  and  _128
REMARK   52  A    between atoms: _128  and  _129
REMARK   53  A    between atoms: _128  and  _131
REMARK   54  A    between atoms: _131  and  _132
REMARK   55  A    between atoms: _135  and  _137
REMARK   56  A    between atoms: _137  and  _138
REMARK   57  A    between atoms: _137  and  _140
REMARK   58  A    between atoms: _140  and  _141
REMARK   59  A    between atoms: _141  and  _142
REMARK   60  A    between atoms: _142  and  _143
REMARK   61  A    between atoms: _143  and  _144
REMARK   62  A    between atoms: _148  and  _150
REMARK   63  A    between atoms: _150  and  _151
REMARK   64  A    between atoms: _150  and  _153
REMARK   65  A    between atoms: _153  and  _154
REMARK   66  A    between atoms: _154  and  _155
REMARK   67  A    between atoms: _155  and  _156
REMARK   68  A    between atoms: _156  and  _157
REMARK   69  A    between atoms: _161  and  _163
REMARK   70  A    between atoms: _163  and  _164
REMARK   71  A    between atoms: _163  and  _166
REMARK   72  A    between atoms: _166  and  _167
REMARK   73  A    between atoms: _170  and  _172
REMARK   74  A    between atoms: _172  and  _173
REMARK   75  A    between atoms: _172  and  _175
REMARK   76  A    between atoms: _175  and  _176
REMARK   77  A    between atoms: _176  and  _177
REMARK   78  A    between atoms: _177  and  _178
REMARK   79  A    between atoms: _187  and  _189
REMARK   80  A    between atoms: _189  and  _190
REMARK   81  A    between atoms: _189  and  _192
REMARK   82  A    between atoms: _192  and  _193
REMARK   83  A    between atoms: _193  and  _194
REMARK   84  A    between atoms: _197  and  _199
REMARK   85  A    between atoms: _199  and  _200
REMARK   86  A    between atoms: _199  and  _202
REMARK   87  A    between atoms: _202  and  _203
REMARK   88  A    between atoms: _206  and  _208
REMARK   89  A    between atoms: _208  and  _209
REMARK   90  A    between atoms: _208  and  _211
REMARK   91  A    between atoms: _211  and  _212
REMARK   92  A    between atoms: _212  and  _213
REMARK   93  A    between atoms: _215  and  _217
REMARK   94  A    between atoms: _217  and  _218
REMARK   95  A    between atoms: _217  and  _220
REMARK   96  A    between atoms: _220  and  _221
REMARK   97  A    between atoms: _224  and  _226
REMARK   98  A    between atoms: _226  and  _227
REMARK   99  A    between atoms: _226  and  _229
REMARK  100  A    between atoms: _229  and  _230
REMARK  101  A    between atoms: _232  and  _234
REMARK  102  A    between atoms: _234  and  _235
REMARK  103  A    between atoms: _234  and  _237
REMARK  104  A    between atoms: _237  and  _238
REMARK  105  A    between atoms: _241  and  _243
REMARK  106  A    between atoms: _243  and  _244
REMARK  107  A    between atoms: _243  and  _246
REMARK  108  A    between atoms: _246  and  _247
REMARK  109  A    between atoms: _250  and  _252
REMARK  110  A    between atoms: _252  and  _253
REMARK  111  A    between atoms: _252  and  _255
REMARK  112  A    between atoms: _255  and  _256
REMARK  113  A    between atoms: _261  and  _263
REMARK  114  A    between atoms: _263  and  _264
REMARK  115  A    between atoms: _263  and  _266
REMARK  116  A    between atoms: _269  and  _271
REMARK  117  A    between atoms: _271  and  _272
REMARK  118  A    between atoms: _271  and  _274
REMARK  119  A    between atoms: _274  and  _275
REMARK  120  A    between atoms: _280  and  _281
REMARK  121  A    between atoms: _283  and  _285
REMARK  122  A    between atoms: _285  and  _286
REMARK  123  A    between atoms: _285  and  _288
REMARK  124  A    between atoms: _288  and  _289
REMARK  125  A    between atoms: _292  and  _294
REMARK  126  A    between atoms: _294  and  _295
REMARK  127  A    between atoms: _294  and  _297
REMARK  128  A    between atoms: _300  and  _302
REMARK  129  A    between atoms: _302  and  _303
REMARK  130  A    between atoms: _302  and  _305
REMARK  131  A    between atoms: _305  and  _306
REMARK  132  A    between atoms: _306  and  _307
REMARK  133  A    between atoms: _309  and  _311
REMARK  134  A    between atoms: _311  and  _312
REMARK  135  A    between atoms: _311  and  _314
REMARK  136  A    between atoms: _314  and  _315
REMARK  137  A    between atoms: _315  and  _316
REMARK  138  A    between atoms: _319  and  _321
REMARK  139  A    between atoms: _321  and  _322
REMARK  140  A    between atoms: _321  and  _324
REMARK  141  A    between atoms: _324  and  _325
REMARK  142  A    between atoms: _328  and  _330
REMARK  143  A    between atoms: _330  and  _331
REMARK  144  A    between atoms: _330  and  _333
REMARK  145  A    between atoms: _333  and  _334
REMARK  146  A    between atoms: _334  and  _335
REMARK  147  A    between atoms: _337  and  _339
REMARK  148  A    between atoms: _339  and  _340
REMARK  149  A    between atoms: _339  and  _342
REMARK  150  A    between atoms: _342  and  _343
REMARK  151  A    between atoms: _346  and  _348
REMARK  152  A    between atoms: _348  and  _349
REMARK  153  A    between atoms: _352  and  _354
REMARK  154  A    between atoms: _354  and  _355
REMARK  155  A    between atoms: _354  and  _357
REMARK  156  A    between atoms: _357  and  _358
REMARK  157  A    between atoms: _363  and  _365
REMARK  158  A    between atoms: _365  and  _366
REMARK  159  A    between atoms: _365  and  _368
REMARK  160  A    between atoms: _368  and  _369
REMARK  161  A    between atoms: _372  and  _374
REMARK  162  A    between atoms: _374  and  _375
REMARK  163  A    between atoms: _374  and  _377
REMARK  164  A    between atoms: _379  and  _381
REMARK  165  A    between atoms: _381  and  _382
REMARK  166  A    between atoms: _381  and  _384
REMARK  167  A    between atoms: _384  and  _385
REMARK  168  A    between atoms: _385  and  _386
REMARK  169  A    between atoms: _391  and  _393
REMARK  170  A    between atoms: _393  and  _394
REMARK  171  A    between atoms: _393  and  _396
REMARK  172  A    between atoms: _396  and  _397
REMARK  173  A    between atoms: _397  and  _398
REMARK  174  A    between atoms: _404  and  _405
REMARK  175  A    between atoms: _410  and  _412
REMARK  176  A    between atoms: _412  and  _413
REMARK  177  A    between atoms: _412  and  _415
REMARK  178  A    between atoms: _415  and  _416
REMARK  179  A    between atoms: _418  and  _420
REMARK  180  A    between atoms: _420  and  _421
REMARK  181  A    between atoms: _420  and  _423
REMARK  182  A    between atoms: _423  and  _424
REMARK  183  A    between atoms: _429  and  _431
REMARK  184  A    between atoms: _431  and  _432
REMARK  185  A    between atoms: _431  and  _434
REMARK  186  A    between atoms: _434  and  _435
REMARK  187  A    between atoms: _438  and  _440
REMARK  188  A    between atoms: _440  and  _441
REMARK  189  A    between atoms: _440  and  _443
REMARK  190  A    between atoms: _446  and  _448
REMARK  191  A    between atoms: _448  and  _449
REMARK  192  A    between atoms: _448  and  _451
REMARK  193  A    between atoms: _454  and  _456
REMARK  194  A    between atoms: _456  and  _457
REMARK  195  A    between atoms: _456  and  _459
REMARK  196  A    between atoms: _459  and  _460
REMARK  197  A    between atoms: _460  and  _461
REMARK  198  A    between atoms: _461  and  _462
REMARK  199  A    between atoms: _462  and  _463
REMARK  200  A    between atoms: _467  and  _469
REMARK  201  A    between atoms: _469  and  _470
REMARK  202  A    between atoms: _469  and  _472
REMARK  203  A    between atoms: _472  and  _473
REMARK  204  A    between atoms: _476  and  _478
REMARK  205  A    between atoms: _478  and  _479
REMARK  206  A    between atoms: _478  and  _481
REMARK  207  A    between atoms: _481  and  _482
REMARK  208  A    between atoms: _485  and  _487
REMARK  209  A    between atoms: _487  and  _488
REMARK  210  A    between atoms: _487  and  _490
REMARK  211  A    between atoms: _490  and  _491
REMARK  212  A    between atoms: _494  and  _496
REMARK  213  A    between atoms: _496  and  _497
REMARK  214  A    between atoms: _496  and  _499
REMARK  215  A    between atoms: _499  and  _500
REMARK                            x       y       z     vdW  Elec       q    Type
REMARK                         _______ _______ _______ _____ _____    ______ ____
ROOT
ATOM      1  O   HOH     1      12.676   7.064  36.439  0.00  0.00    +0.000 OA
ENDROOT
TORSDOF 0
REMARK  Name = ../refined-set-2016/2o0u/2o0u_pocket.pdb
REMARK  215 active torsions:
REMARK  status: ('A' for Active; 'I' for Inactive)
REMARK    1  A    between atoms: _1  and  _3
REMARK    2  A    between atoms: _3  and  _4
REMARK    3  A    between atoms: _3  and  _6
REMARK    4  A    between atoms: _6  and  _7
REMARK    5  A    between atoms: _7  and  _8
REMARK    6  A    between atoms: _8  and  _9
REMARK    7  A    between atoms: _9  and  _10
REMARK    8  A    between atoms: _15  and  _16
REMARK    9  A    between atoms: _21  and  _23
REMARK   10  A    between atoms: _23  and  _24
REMARK   11  A    between atoms: _23  and  _26
REMARK   12  A    between atoms: _26  and  _27
REMARK   13  A    between atoms: _30  and  _32
REMARK   14  A    between atoms: _32  and  _33
REMARK   15  A    between atoms: _35  and  _37
REMARK   16  A    between atoms: _37  and  _38
REMARK   17  A    between atoms: _37  and  _40
REMARK   18  A    between atoms: _40  and  _41
REMARK   19  A    between atoms: _43  and  _45
REMARK   20  A    between atoms: _45  and  _46
REMARK   21  A    between atoms: _48  and  _50
REMARK   22  A    between atoms: _50  and  _51
REMARK   23  A    between atoms: _50  and  _53
REMARK   24  A    between atoms: _53  and  _54
REMARK   25  A    between atoms: _54  and  _55
REMARK   26  A    between atoms: _60  and  _62
REMARK   27  A    between atoms: _62  and  _63
REMARK   28  A    between atoms: _65  and  _67
REMARK   29  A    between atoms: _67  and  _68
REMARK   30  A    between atoms: _67  and  _70
REMARK   31  A    between atoms: _70  and  _71
REMARK   32  A    between atoms: _74  and  _76
REMARK   33  A    between atoms: _76  and  _77
REMARK   34  A    between atoms: _76  and  _79
REMARK   35  A    between atoms: _82  and  _84
REMARK   36  A    between atoms: _84  and  _85
REMARK   37  A    between atoms: _84  and  _87
REMARK   38  A    between atoms: _89  and  _91
REMARK   39  A    between atoms: _91  and  _92
REMARK   40  A    between atoms: _95  and  _97
REMARK   41  A    between atoms: _97  and  _98
REMARK   42  A    between atoms: _101  and  _103
REMARK   43  A    between atoms: _103  and  _104
REMARK   44  A    between atoms: _103  and  _106
REMARK   45  A    between atoms: _106  and  _107
REMARK   46  A    between atoms: _112  and  _114
REMARK   47  A    between atoms: _114  and  _115
REMARK   48  A    between atoms: _114  and  _117
REMARK   49  A    between atoms: _120  and  _122
REMARK   50  A    between atoms: _122  and  _123
REMARK   51  A    between atoms: _126  and  _128
REMARK   52  A    between atoms: _128  and  _129
REMARK   53  A    between atoms: _128  and  _131
REMARK   54  A    between atoms: _131  and  _132
REMARK   55  A    between atoms: _135  and  _137
REMARK   56  A    between atoms: _137  and  _138
REMARK   57  A    between atoms: _137  and  _140
REMARK   58  A    between atoms: _140  and  _141
REMARK   59  A    between atoms: _141  and  _142
REMARK   60  A    between atoms: _142  and  _143
REMARK   61  A    between atoms: _143  and  _144
REMARK   62  A    between atoms: _148  and  _150
REMARK   63  A    between atoms: _150  and  _151
REMARK   64  A    between atoms: _150  and  _153
REMARK   65  A    between atoms: _153  and  _154
REMARK   66  A    between atoms: _154  and  _155
REMARK   67  A    between atoms: _155  and  _156
REMARK   68  A    between atoms: _156  and  _157
REMARK   69  A    between atoms: _161  and  _163
REMARK   70  A    between atoms: _163  and  _164
REMARK   71  A    between atoms: _163  and  _166
REMARK   72  A    between atoms: _166  and  _167
REMARK   73  A    between atoms: _170  and  _172
REMARK   74  A    between atoms: _172  and  _173
REMARK   75  A    between atoms: _172  and  _175
REMARK   76  A    between atoms: _175  and  _176
REMARK   77  A    between atoms: _176  and  _177
REMARK   78  A    between atoms: _177  and  _178
REMARK   79  A    between atoms: _187  and  _189
REMARK   80  A    between atoms: _189  and  _190
REMARK   81  A    between atoms: _189  and  _192
REMARK   82  A    between atoms: _192  and  _193
REMARK   83  A    between atoms: _193  and  _194
REMARK   84  A    between atoms: _197  and  _199
REMARK   85  A    between atoms: _199  and  _200
REMARK   86  A    between atoms: _199  and  _202
REMARK   87  A    between atoms: _202  and  _203
REMARK   88  A    between atoms: _206  and  _208
REMARK   89  A    between atoms: _208  and  _209
REMARK   90  A    between atoms: _208  and  _211
REMARK   91  A    between atoms: _211  and  _212
REMARK   92  A    between atoms: _212  and  _213
REMARK   93  A    between atoms: _215  and  _217
REMARK   94  A    between atoms: _217  and  _218
REMARK   95  A    between atoms: _217  and  _220
REMARK   96  A    between atoms: _220  and  _221
REMARK   97  A    between atoms: _224  and  _226
REMARK   98  A    between atoms: _226  and  _227
REMARK   99  A    between atoms: _226  and  _229
REMARK  100  A    between atoms: _229  and  _230
REMARK  101  A    between atoms: _232  and  _234
REMARK  102  A    between atoms: _234  and  _235
REMARK  103  A    between atoms: _234  and  _237
REMARK  104  A    between atoms: _237  and  _238
REMARK  105  A    between atoms: _241  and  _243
REMARK  106  A    between atoms: _243  and  _244
REMARK  107  A    between atoms: _243  and  _246
REMARK  108  A    between atoms: _246  and  _247
REMARK  109  A    between atoms: _250  and  _252
REMARK  110  A    between atoms: _252  and  _253
REMARK  111  A    between atoms: _252  and  _255
REMARK  112  A    between atoms: _255  and  _256
REMARK  113  A    between atoms: _261  and  _263
REMARK  114  A    between atoms: _263  and  _264
REMARK  115  A    between atoms: _263  and  _266
REMARK  116  A    between atoms: _269  and  _271
REMARK  117  A    between atoms: _271  and  _272
REMARK  118  A    between atoms: _271  and  _274
REMARK  119  A    between atoms: _274  and  _275
REMARK  120  A    between atoms: _280  and  _281
REMARK  121  A    between atoms: _283  and  _285
REMARK  122  A    between atoms: _285  and  _286
REMARK  123  A    between atoms: _285  and  _288
REMARK  124  A    between atoms: _288  and  _289
REMARK  125  A    between atoms: _292  and  _294
REMARK  126  A    between atoms: _294  and  _295
REMARK  127  A    between atoms: _294  and  _297
REMARK  128  A    between atoms: _300  and  _302
REMARK  129  A    between atoms: _302  and  _303
REMARK  130  A    between atoms: _302  and  _305
REMARK  131  A    between atoms: _305  and  _306
REMARK  132  A    between atoms: _306  and  _307
REMARK  133  A    between atoms: _309  and  _311
REMARK  134  A    between atoms: _311  and  _312
REMARK  135  A    between atoms: _311  and  _314
REMARK  136  A    between atoms: _314  and  _315
REMARK  137  A    between atoms: _315  and  _316
REMARK  138  A    between atoms: _319  and  _321
REMARK  139  A    between atoms: _321  and  _322
REMARK  140  A    between atoms: _321  and  _324
REMARK  141  A    between atoms: _324  and  _325
REMARK  142  A    between atoms: _328  and  _330
REMARK  143  A    between atoms: _330  and  _331
REMARK  144  A    between atoms: _330  and  _333
REMARK  145  A    between atoms: _333  and  _334
REMARK  146  A    between atoms: _334  and  _335
REMARK  147  A    between atoms: _337  and  _339
REMARK  148  A    between atoms: _339  and  _340
REMARK  149  A    between atoms: _339  and  _342
REMARK  150  A    between atoms: _342  and  _343
REMARK  151  A    between atoms: _346  and  _348
REMARK  152  A    between atoms: _348  and  _349
REMARK  153  A    between atoms: _352  and  _354
REMARK  154  A    between atoms: _354  and  _355
REMARK  155  A    between atoms: _354  and  _357
REMARK  156  A    between atoms: _357  and  _358
REMARK  157  A    between atoms: _363  and  _365
REMARK  158  A    between atoms: _365  and  _366
REMARK  159  A    between atoms: _365  and  _368
REMARK  160  A    between atoms: _368  and  _369
REMARK  161  A    between atoms: _372  and  _374
REMARK  162  A    between atoms: _374  and  _375
REMARK  163  A    between atoms: _374  and  _377
REMARK  164  A    between atoms: _379  and  _381
REMARK  165  A    between atoms: _381  and  _382
REMARK  166  A    between atoms: _381  and  _384
REMARK  167  A    between atoms: _384  and  _385
REMARK  168  A    between atoms: _385  and  _386
REMARK  169  A    between atoms: _391  and  _393
REMARK  170  A    between atoms: _393  and  _394
REMARK  171  A    between atoms: _393  and  _396
REMARK  172  A    between atoms: _396  and  _397
REMARK  173  A    between atoms: _397  and  _398
REMARK  174  A    between atoms: _404  and  _405
REMARK  175  A    between atoms: _410  and  _412
REMARK  176  A    between atoms: _412  and  _413
REMARK  177  A    between atoms: _412  and  _415
REMARK  178  A    between atoms: _415  and  _416
REMARK  179  A    between atoms: _418  and  _420
REMARK  180  A    between atoms: _420  and  _421
REMARK  181  A    between atoms: _420  and  _423
REMARK  182  A    between atoms: _423  and  _424
REMARK  183  A    between atoms: _429  and  _431
REMARK  184  A    between atoms: _431  and  _432
REMARK  185  A    between atoms: _431  and  _434
REMARK  186  A    between atoms: _434  and  _435
REMARK  187  A    between atoms: _438  and  _440
REMARK  188  A    between atoms: _440  and  _441
REMARK  189  A    between atoms: _440  and  _443
REMARK  190  A    between atoms: _446  and  _448
REMARK  191  A    between atoms: _448  and  _449
REMARK  192  A    between atoms: _448  and  _451
REMARK  193  A    between atoms: _454  and  _456
REMARK  194  A    between atoms: _456  and  _457
REMARK  195  A    between atoms: _456  and  _459
REMARK  196  A    between atoms: _459  and  _460
REMARK  197  A    between atoms: _460  and  _461
REMARK  198  A    between atoms: _461  and  _462
REMARK  199  A    between atoms: _462  and  _463
REMARK  200  A    between atoms: _467  and  _469
REMARK  201  A    between atoms: _469  and  _470
REMARK  202  A    between atoms: _469  and  _472
REMARK  203  A    between atoms: _472  and  _473
REMARK  204  A    between atoms: _476  and  _478
REMARK  205  A    between atoms: _478  and  _479
REMARK  206  A    between atoms: _478  and  _481
REMARK  207  A    between atoms: _481  and  _482
REMARK  208  A    between atoms: _485  and  _487
REMARK  209  A    between atoms: _487  and  _488
REMARK  210  A    between atoms: _487  and  _490
REMARK  211  A    between atoms: _490  and  _491
REMARK  212  A    between atoms: _494  and  _496
REMARK  213  A    between atoms: _496  and  _497
REMARK  214  A    between atoms: _496  and  _499
REMARK  215  A    between atoms: _499  and  _500
REMARK                            x       y       z     vdW  Elec       q    Type
REMARK                         _______ _______ _______ _____ _____    ______ ____
ROOT
ATOM      1  O   HOH     1      24.718  15.433  26.718  0.00  0.00    +0.000 OA
ENDROOT
TORSDOF 0
REMARK  Name = ../refined-set-2016/2o0u/2o0u_pocket.pdb
REMARK  215 active torsions:
REMARK  status: ('A' for Active; 'I' for Inactive)
REMARK    1  A    between atoms: _1  and  _3
REMARK    2  A    between atoms: _3  and  _4
REMARK    3  A    between atoms: _3  and  _6
REMARK    4  A    between atoms: _6  and  _7
REMARK    5  A    between atoms: _7  and  _8
REMARK    6  A    between atoms: _8  and  _9
REMARK    7  A    between atoms: _9  and  _10
REMARK    8  A    between atoms: _15  and  _16
REMARK    9  A    between atoms: _21  and  _23
REMARK   10  A    between atoms: _23  and  _24
REMARK   11  A    between atoms: _23  and  _26
REMARK   12  A    between atoms: _26  and  _27
REMARK   13  A    between atoms: _30  and  _32
REMARK   14  A    between atoms: _32  and  _33
REMARK   15  A    between atoms: _35  and  _37
REMARK   16  A    between atoms: _37  and  _38
REMARK   17  A    between atoms: _37  and  _40
REMARK   18  A    between atoms: _40  and  _41
REMARK   19  A    between atoms: _43  and  _45
REMARK   20  A    between atoms: _45  and  _46
REMARK   21  A    between atoms: _48  and  _50
REMARK   22  A    between atoms: _50  and  _51
REMARK   23  A    between atoms: _50  and  _53
REMARK   24  A    between atoms: _53  and  _54
REMARK   25  A    between atoms: _54  and  _55
REMARK   26  A    between atoms: _60  and  _62
REMARK   27  A    between atoms: _62  and  _63
REMARK   28  A    between atoms: _65  and  _67
REMARK   29  A    between atoms: _67  and  _68
REMARK   30  A    between atoms: _67  and  _70
REMARK   31  A    between atoms: _70  and  _71
REMARK   32  A    between atoms: _74  and  _76
REMARK   33  A    between atoms: _76  and  _77
REMARK   34  A    between atoms: _76  and  _79
REMARK   35  A    between atoms: _82  and  _84
REMARK   36  A    between atoms: _84  and  _85
REMARK   37  A    between atoms: _84  and  _87
REMARK   38  A    between atoms: _89  and  _91
REMARK   39  A    between atoms: _91  and  _92
REMARK   40  A    between atoms: _95  and  _97
REMARK   41  A    between atoms: _97  and  _98
REMARK   42  A    between atoms: _101  and  _103
REMARK   43  A    between atoms: _103  and  _104
REMARK   44  A    between atoms: _103  and  _106
REMARK   45  A    between atoms: _106  and  _107
REMARK   46  A    between atoms: _112  and  _114
REMARK   47  A    between atoms: _114  and  _115
REMARK   48  A    between atoms: _114  and  _117
REMARK   49  A    between atoms: _120  and  _122
REMARK   50  A    between atoms: _122  and  _123
REMARK   51  A    between atoms: _126  and  _128
REMARK   52  A    between atoms: _128  and  _129
REMARK   53  A    between atoms: _128  and  _131
REMARK   54  A    between atoms: _131  and  _132
REMARK   55  A    between atoms: _135  and  _137
REMARK   56  A    between atoms: _137  and  _138
REMARK   57  A    between atoms: _137  and  _140
REMARK   58  A    between atoms: _140  and  _141
REMARK   59  A    between atoms: _141  and  _142
REMARK   60  A    between atoms: _142  and  _143
REMARK   61  A    between atoms: _143  and  _144
REMARK   62  A    between atoms: _148  and  _150
REMARK   63  A    between atoms: _150  and  _151
REMARK   64  A    between atoms: _150  and  _153
REMARK   65  A    between atoms: _153  and  _154
REMARK   66  A    between atoms: _154  and  _155
REMARK   67  A    between atoms: _155  and  _156
REMARK   68  A    between atoms: _156  and  _157
REMARK   69  A    between atoms: _161  and  _163
REMARK   70  A    between atoms: _163  and  _164
REMARK   71  A    between atoms: _163  and  _166
REMARK   72  A    between atoms: _166  and  _167
REMARK   73  A    between atoms: _170  and  _172
REMARK   74  A    between atoms: _172  and  _173
REMARK   75  A    between atoms: _172  and  _175
REMARK   76  A    between atoms: _175  and  _176
REMARK   77  A    between atoms: _176  and  _177
REMARK   78  A    between atoms: _177  and  _178
REMARK   79  A    between atoms: _187  and  _189
REMARK   80  A    between atoms: _189  and  _190
REMARK   81  A    between atoms: _189  and  _192
REMARK   82  A    between atoms: _192  and  _193
REMARK   83  A    between atoms: _193  and  _194
REMARK   84  A    between atoms: _197  and  _199
REMARK   85  A    between atoms: _199  and  _200
REMARK   86  A    between atoms: _199  and  _202
REMARK   87  A    between atoms: _202  and  _203
REMARK   88  A    between atoms: _206  and  _208
REMARK   89  A    between atoms: _208  and  _209
REMARK   90  A    between atoms: _208  and  _211
REMARK   91  A    between atoms: _211  and  _212
REMARK   92  A    between atoms: _212  and  _213
REMARK   93  A    between atoms: _215  and  _217
REMARK   94  A    between atoms: _217  and  _218
REMARK   95  A    between atoms: _217  and  _220
REMARK   96  A    between atoms: _220  and  _221
REMARK   97  A    between atoms: _224  and  _226
REMARK   98  A    between atoms: _226  and  _227
REMARK   99  A    between atoms: _226  and  _229
REMARK  100  A    between atoms: _229  and  _230
REMARK  101  A    between atoms: _232  and  _234
REMARK  102  A    between atoms: _234  and  _235
REMARK  103  A    between atoms: _234  and  _237
REMARK  104  A    between atoms: _237  and  _238
REMARK  105  A    between atoms: _241  and  _243
REMARK  106  A    between atoms: _243  and  _244
REMARK  107  A    between atoms: _243  and  _246
REMARK  108  A    between atoms: _246  and  _247
REMARK  109  A    between atoms: _250  and  _252
REMARK  110  A    between atoms: _252  and  _253
REMARK  111  A    between atoms: _252  and  _255
REMARK  112  A    between atoms: _255  and  _256
REMARK  113  A    between atoms: _261  and  _263
REMARK  114  A    between atoms: _263  and  _264
REMARK  115  A    between atoms: _263  and  _266
REMARK  116  A    between atoms: _269  and  _271
REMARK  117  A    between atoms: _271  and  _272
REMARK  118  A    between atoms: _271  and  _274
REMARK  119  A    between atoms: _274  and  _275
REMARK  120  A    between atoms: _280  and  _281
REMARK  121  A    between atoms: _283  and  _285
REMARK  122  A    between atoms: _285  and  _286
REMARK  123  A    between atoms: _285  and  _288
REMARK  124  A    between atoms: _288  and  _289
REMARK  125  A    between atoms: _292  and  _294
REMARK  126  A    between atoms: _294  and  _295
REMARK  127  A    between atoms: _294  and  _297
REMARK  128  A    between atoms: _300  and  _302
REMARK  129  A    between atoms: _302  and  _303
REMARK  130  A    between atoms: _302  and  _305
REMARK  131  A    between atoms: _305  and  _306
REMARK  132  A    between atoms: _306  and  _307
REMARK  133  A    between atoms: _309  and  _311
REMARK  134  A    between atoms: _311  and  _312
REMARK  135  A    between atoms: _311  and  _314
REMARK  136  A    between atoms: _314  and  _315
REMARK  137  A    between atoms: _315  and  _316
REMARK  138  A    between atoms: _319  and  _321
REMARK  139  A    between atoms: _321  and  _322
REMARK  140  A    between atoms: _321  and  _324
REMARK  141  A    between atoms: _324  and  _325
REMARK  142  A    between atoms: _328  and  _330
REMARK  143  A    between atoms: _330  and  _331
REMARK  144  A    between atoms: _330  and  _333
REMARK  145  A    between atoms: _333  and  _334
REMARK  146  A    between atoms: _334  and  _335
REMARK  147  A    between atoms: _337  and  _339
REMARK  148  A    between atoms: _339  and  _340
REMARK  149  A    between atoms: _339  and  _342
REMARK  150  A    between atoms: _342  and  _343
REMARK  151  A    between atoms: _346  and  _348
REMARK  152  A    between atoms: _348  and  _349
REMARK  153  A    between atoms: _352  and  _354
REMARK  154  A    between atoms: _354  and  _355
REMARK  155  A    between atoms: _354  and  _357
REMARK  156  A    between atoms: _357  and  _358
REMARK  157  A    between atoms: _363  and  _365
REMARK  158  A    between atoms: _365  and  _366
REMARK  159  A    between atoms: _365  and  _368
REMARK  160  A    between atoms: _368  and  _369
REMARK  161  A    between atoms: _372  and  _374
REMARK  162  A    between atoms: _374  and  _375
REMARK  163  A    between atoms: _374  and  _377
REMARK  164  A    between atoms: _379  and  _381
REMARK  165  A    between atoms: _381  and  _382
REMARK  166  A    between atoms: _381  and  _384
REMARK  167  A    between atoms: _384  and  _385
REMARK  168  A    between atoms: _385  and  _386
REMARK  169  A    between atoms: _391  and  _393
REMARK  170  A    between atoms: _393  and  _394
REMARK  171  A    between atoms: _393  and  _396
REMARK  172  A    between atoms: _396  and  _397
REMARK  173  A    between atoms: _397  and  _398
REMARK  174  A    between atoms: _404  and  _405
REMARK  175  A    between atoms: _410  and  _412
REMARK  176  A    between atoms: _412  and  _413
REMARK  177  A    between atoms: _412  and  _415
REMARK  178  A    between atoms: _415  and  _416
REMARK  179  A    between atoms: _418  and  _420
REMARK  180  A    between atoms: _420  and  _421
REMARK  181  A    between atoms: _420  and  _423
REMARK  182  A    between atoms: _423  and  _424
REMARK  183  A    between atoms: _429  and  _431
REMARK  184  A    between atoms: _431  and  _432
REMARK  185  A    between atoms: _431  and  _434
REMARK  186  A    between atoms: _434  and  _435
REMARK  187  A    between atoms: _438  and  _440
REMARK  188  A    between atoms: _440  and  _441
REMARK  189  A    between atoms: _440  and  _443
REMARK  190  A    between atoms: _446  and  _448
REMARK  191  A    between atoms: _448  and  _449
REMARK  192  A    between atoms: _448  and  _451
REMARK  193  A    between atoms: _454  and  _456
REMARK  194  A    between atoms: _456  and  _457
REMARK  195  A    between atoms: _456  and  _459
REMARK  196  A    between atoms: _459  and  _460
REMARK  197  A    between atoms: _460  and  _461
REMARK  198  A    between atoms: _461  and  _462
REMARK  199  A    between atoms: _462  and  _463
REMARK  200  A    between atoms: _467  and  _469
REMARK  201  A    between atoms: _469  and  _470
REMARK  202  A    between atoms: _469  and  _472
REMARK  203  A    between atoms: _472  and  _473
REMARK  204  A    between atoms: _476  and  _478
REMARK  205  A    between atoms: _478  and  _479
REMARK  206  A    between atoms: _478  and  _481
REMARK  207  A    between atoms: _481  and  _482
REMARK  208  A    between atoms: _485  and  _487
REMARK  209  A    between atoms: _487  and  _488
REMARK  210  A    between atoms: _487  and  _490
REMARK  211  A    between atoms: _490  and  _491
REMARK  212  A    between atoms: _494  and  _496
REMARK  213  A    between atoms: _496  and  _497
REMARK  214  A    between atoms: _496  and  _499
REMARK  215  A    between atoms: _499  and  _500
REMARK                            x       y       z     vdW  Elec       q    Type
REMARK                         _______ _______ _______ _____ _____    ______ ____
ROOT
ATOM      1  O   HOH     1      19.486  20.325  31.527  0.00  0.00    +0.000 OA
ENDROOT
TORSDOF 0
REMARK  Name = ../refined-set-2016/2o0u/2o0u_pocket.pdb
REMARK  215 active torsions:
REMARK  status: ('A' for Active; 'I' for Inactive)
REMARK    1  A    between atoms: _1  and  _3
REMARK    2  A    between atoms: _3  and  _4
REMARK    3  A    between atoms: _3  and  _6
REMARK    4  A    between atoms: _6  and  _7
REMARK    5  A    between atoms: _7  and  _8
REMARK    6  A    between atoms: _8  and  _9
REMARK    7  A    between atoms: _9  and  _10
REMARK    8  A    between atoms: _15  and  _16
REMARK    9  A    between atoms: _21  and  _23
REMARK   10  A    between atoms: _23  and  _24
REMARK   11  A    between atoms: _23  and  _26
REMARK   12  A    between atoms: _26  and  _27
REMARK   13  A    between atoms: _30  and  _32
REMARK   14  A    between atoms: _32  and  _33
REMARK   15  A    between atoms: _35  and  _37
REMARK   16  A    between atoms: _37  and  _38
REMARK   17  A    between atoms: _37  and  _40
REMARK   18  A    between atoms: _40  and  _41
REMARK   19  A    between atoms: _43  and  _45
REMARK   20  A    between atoms: _45  and  _46
REMARK   21  A    between atoms: _48  and  _50
REMARK   22  A    between atoms: _50  and  _51
REMARK   23  A    between atoms: _50  and  _53
REMARK   24  A    between atoms: _53  and  _54
REMARK   25  A    between atoms: _54  and  _55
REMARK   26  A    between atoms: _60  and  _62
REMARK   27  A    between atoms: _62  and  _63
REMARK   28  A    between atoms: _65  and  _67
REMARK   29  A    between atoms: _67  and  _68
REMARK   30  A    between atoms: _67  and  _70
REMARK   31  A    between atoms: _70  and  _71
REMARK   32  A    between atoms: _74  and  _76
REMARK   33  A    between atoms: _76  and  _77
REMARK   34  A    between atoms: _76  and  _79
REMARK   35  A    between atoms: _82  and  _84
REMARK   36  A    between atoms: _84  and  _85
REMARK   37  A    between atoms: _84  and  _87
REMARK   38  A    between atoms: _89  and  _91
REMARK   39  A    between atoms: _91  and  _92
REMARK   40  A    between atoms: _95  and  _97
REMARK   41  A    between atoms: _97  and  _98
REMARK   42  A    between atoms: _101  and  _103
REMARK   43  A    between atoms: _103  and  _104
REMARK   44  A    between atoms: _103  and  _106
REMARK   45  A    between atoms: _106  and  _107
REMARK   46  A    between atoms: _112  and  _114
REMARK   47  A    between atoms: _114  and  _115
REMARK   48  A    between atoms: _114  and  _117
REMARK   49  A    between atoms: _120  and  _122
REMARK   50  A    between atoms: _122  and  _123
REMARK   51  A    between atoms: _126  and  _128
REMARK   52  A    between atoms: _128  and  _129
REMARK   53  A    between atoms: _128  and  _131
REMARK   54  A    between atoms: _131  and  _132
REMARK   55  A    between atoms: _135  and  _137
REMARK   56  A    between atoms: _137  and  _138
REMARK   57  A    between atoms: _137  and  _140
REMARK   58  A    between atoms: _140  and  _141
REMARK   59  A    between atoms: _141  and  _142
REMARK   60  A    between atoms: _142  and  _143
REMARK   61  A    between atoms: _143  and  _144
REMARK   62  A    between atoms: _148  and  _150
REMARK   63  A    between atoms: _150  and  _151
REMARK   64  A    between atoms: _150  and  _153
REMARK   65  A    between atoms: _153  and  _154
REMARK   66  A    between atoms: _154  and  _155
REMARK   67  A    between atoms: _155  and  _156
REMARK   68  A    between atoms: _156  and  _157
REMARK   69  A    between atoms: _161  and  _163
REMARK   70  A    between atoms: _163  and  _164
REMARK   71  A    between atoms: _163  and  _166
REMARK   72  A    between atoms: _166  and  _167
REMARK   73  A    between atoms: _170  and  _172
REMARK   74  A    between atoms: _172  and  _173
REMARK   75  A    between atoms: _172  and  _175
REMARK   76  A    between atoms: _175  and  _176
REMARK   77  A    between atoms: _176  and  _177
REMARK   78  A    between atoms: _177  and  _178
REMARK   79  A    between atoms: _187  and  _189
REMARK   80  A    between atoms: _189  and  _190
REMARK   81  A    between atoms: _189  and  _192
REMARK   82  A    between atoms: _192  and  _193
REMARK   83  A    between atoms: _193  and  _194
REMARK   84  A    between atoms: _197  and  _199
REMARK   85  A    between atoms: _199  and  _200
REMARK   86  A    between atoms: _199  and  _202
REMARK   87  A    between atoms: _202  and  _203
REMARK   88  A    between atoms: _206  and  _208
REMARK   89  A    between atoms: _208  and  _209
REMARK   90  A    between atoms: _208  and  _211
REMARK   91  A    between atoms: _211  and  _212
REMARK   92  A    between atoms: _212  and  _213
REMARK   93  A    between atoms: _215  and  _217
REMARK   94  A    between atoms: _217  and  _218
REMARK   95  A    between atoms: _217  and  _220
REMARK   96  A    between atoms: _220  and  _221
REMARK   97  A    between atoms: _224  and  _226
REMARK   98  A    between atoms: _226  and  _227
REMARK   99  A    between atoms: _226  and  _229
REMARK  100  A    between atoms: _229  and  _230
REMARK  101  A    between atoms: _232  and  _234
REMARK  102  A    between atoms: _234  and  _235
REMARK  103  A    between atoms: _234  and  _237
REMARK  104  A    between atoms: _237  and  _238
REMARK  105  A    between atoms: _241  and  _243
REMARK  106  A    between atoms: _243  and  _244
REMARK  107  A    between atoms: _243  and  _246
REMARK  108  A    between atoms: _246  and  _247
REMARK  109  A    between atoms: _250  and  _252
REMARK  110  A    between atoms: _252  and  _253
REMARK  111  A    between atoms: _252  and  _255
REMARK  112  A    between atoms: _255  and  _256
REMARK  113  A    between atoms: _261  and  _263
REMARK  114  A    between atoms: _263  and  _264
REMARK  115  A    between atoms: _263  and  _266
REMARK  116  A    between atoms: _269  and  _271
REMARK  117  A    between atoms: _271  and  _272
REMARK  118  A    between atoms: _271  and  _274
REMARK  119  A    between atoms: _274  and  _275
REMARK  120  A    between atoms: _280  and  _281
REMARK  121  A    between atoms: _283  and  _285
REMARK  122  A    between atoms: _285  and  _286
REMARK  123  A    between atoms: _285  and  _288
REMARK  124  A    between atoms: _288  and  _289
REMARK  125  A    between atoms: _292  and  _294
REMARK  126  A    between atoms: _294  and  _295
REMARK  127  A    between atoms: _294  and  _297
REMARK  128  A    between atoms: _300  and  _302
REMARK  129  A    between atoms: _302  and  _303
REMARK  130  A    between atoms: _302  and  _305
REMARK  131  A    between atoms: _305  and  _306
REMARK  132  A    between atoms: _306  and  _307
REMARK  133  A    between atoms: _309  and  _311
REMARK  134  A    between atoms: _311  and  _312
REMARK  135  A    between atoms: _311  and  _314
REMARK  136  A    between atoms: _314  and  _315
REMARK  137  A    between atoms: _315  and  _316
REMARK  138  A    between atoms: _319  and  _321
REMARK  139  A    between atoms: _321  and  _322
REMARK  140  A    between atoms: _321  and  _324
REMARK  141  A    between atoms: _324  and  _325
REMARK  142  A    between atoms: _328  and  _330
REMARK  143  A    between atoms: _330  and  _331
REMARK  144  A    between atoms: _330  and  _333
REMARK  145  A    between atoms: _333  and  _334
REMARK  146  A    between atoms: _334  and  _335
REMARK  147  A    between atoms: _337  and  _339
REMARK  148  A    between atoms: _339  and  _340
REMARK  149  A    between atoms: _339  and  _342
REMARK  150  A    between atoms: _342  and  _343
REMARK  151  A    between atoms: _346  and  _348
REMARK  152  A    between atoms: _348  and  _349
REMARK  153  A    between atoms: _352  and  _354
REMARK  154  A    between atoms: _354  and  _355
REMARK  155  A    between atoms: _354  and  _357
REMARK  156  A    between atoms: _357  and  _358
REMARK  157  A    between atoms: _363  and  _365
REMARK  158  A    between atoms: _365  and  _366
REMARK  159  A    between atoms: _365  and  _368
REMARK  160  A    between atoms: _368  and  _369
REMARK  161  A    between atoms: _372  and  _374
REMARK  162  A    between atoms: _374  and  _375
REMARK  163  A    between atoms: _374  and  _377
REMARK  164  A    between atoms: _379  and  _381
REMARK  165  A    between atoms: _381  and  _382
REMARK  166  A    between atoms: _381  and  _384
REMARK  167  A    between atoms: _384  and  _385
REMARK  168  A    between atoms: _385  and  _386
REMARK  169  A    between atoms: _391  and  _393
REMARK  170  A    between atoms: _393  and  _394
REMARK  171  A    between atoms: _393  and  _396
REMARK  172  A    between atoms: _396  and  _397
REMARK  173  A    between atoms: _397  and  _398
REMARK  174  A    between atoms: _404  and  _405
REMARK  175  A    between atoms: _410  and  _412
REMARK  176  A    between atoms: _412  and  _413
REMARK  177  A    between atoms: _412  and  _415
REMARK  178  A    between atoms: _415  and  _416
REMARK  179  A    between atoms: _418  and  _420
REMARK  180  A    between atoms: _420  and  _421
REMARK  181  A    between atoms: _420  and  _423
REMARK  182  A    between atoms: _423  and  _424
REMARK  183  A    between atoms: _429  and  _431
REMARK  184  A    between atoms: _431  and  _432
REMARK  185  A    between atoms: _431  and  _434
REMARK  186  A    between atoms: _434  and  _435
REMARK  187  A    between atoms: _438  and  _440
REMARK  188  A    between atoms: _440  and  _441
REMARK  189  A    between atoms: _440  and  _443
REMARK  190  A    between atoms: _446  and  _448
REMARK  191  A    between atoms: _448  and  _449
REMARK  192  A    between atoms: _448  and  _451
REMARK  193  A    between atoms: _454  and  _456
REMARK  194  A    between atoms: _456  and  _457
REMARK  195  A    between atoms: _456  and  _459
REMARK  196  A    between atoms: _459  and  _460
REMARK  197  A    between atoms: _460  and  _461
REMARK  198  A    between atoms: _461  and  _462
REMARK  199  A    between atoms: _462  and  _463
REMARK  200  A    between atoms: _467  and  _469
REMARK  201  A    between atoms: _469  and  _470
REMARK  202  A    between atoms: _469  and  _472
REMARK  203  A    between atoms: _472  and  _473
REMARK  204  A    between atoms: _476  and  _478
REMARK  205  A    between atoms: _478  and  _479
REMARK  206  A    between atoms: _478  and  _481
REMARK  207  A    between atoms: _481  and  _482
REMARK  208  A    between atoms: _485  and  _487
REMARK  209  A    between atoms: _487  and  _488
REMARK  210  A    between atoms: _487  and  _490
REMARK  211  A    between atoms: _490  and  _491
REMARK  212  A    between atoms: _494  and  _496
REMARK  213  A    between atoms: _496  and  _497
REMARK  214  A    between atoms: _496  and  _499
REMARK  215  A    between atoms: _499  and  _500
REMARK                            x       y       z     vdW  Elec       q    Type
REMARK                         _______ _______ _______ _____ _____    ______ ____
ROOT
ATOM      1  O   HOH     1      19.947  21.296  34.254  0.00  0.00    +0.000 OA
ENDROOT
TORSDOF 0
REMARK  Name = ../refined-set-2016/2o0u/2o0u_pocket.pdb
REMARK  215 active torsions:
REMARK  status: ('A' for Active; 'I' for Inactive)
REMARK    1  A    between atoms: _1  and  _3
REMARK    2  A    between atoms: _3  and  _4
REMARK    3  A    between atoms: _3  and  _6
REMARK    4  A    between atoms: _6  and  _7
REMARK    5  A    between atoms: _7  and  _8
REMARK    6  A    between atoms: _8  and  _9
REMARK    7  A    between atoms: _9  and  _10
REMARK    8  A    between atoms: _15  and  _16
REMARK    9  A    between atoms: _21  and  _23
REMARK   10  A    between atoms: _23  and  _24
REMARK   11  A    between atoms: _23  and  _26
REMARK   12  A    between atoms: _26  and  _27
REMARK   13  A    between atoms: _30  and  _32
REMARK   14  A    between atoms: _32  and  _33
REMARK   15  A    between atoms: _35  and  _37
REMARK   16  A    between atoms: _37  and  _38
REMARK   17  A    between atoms: _37  and  _40
REMARK   18  A    between atoms: _40  and  _41
REMARK   19  A    between atoms: _43  and  _45
REMARK   20  A    between atoms: _45  and  _46
REMARK   21  A    between atoms: _48  and  _50
REMARK   22  A    between atoms: _50  and  _51
REMARK   23  A    between atoms: _50  and  _53
REMARK   24  A    between atoms: _53  and  _54
REMARK   25  A    between atoms: _54  and  _55
REMARK   26  A    between atoms: _60  and  _62
REMARK   27  A    between atoms: _62  and  _63
REMARK   28  A    between atoms: _65  and  _67
REMARK   29  A    between atoms: _67  and  _68
REMARK   30  A    between atoms: _67  and  _70
REMARK   31  A    between atoms: _70  and  _71
REMARK   32  A    between atoms: _74  and  _76
REMARK   33  A    between atoms: _76  and  _77
REMARK   34  A    between atoms: _76  and  _79
REMARK   35  A    between atoms: _82  and  _84
REMARK   36  A    between atoms: _84  and  _85
REMARK   37  A    between atoms: _84  and  _87
REMARK   38  A    between atoms: _89  and  _91
REMARK   39  A    between atoms: _91  and  _92
REMARK   40  A    between atoms: _95  and  _97
REMARK   41  A    between atoms: _97  and  _98
REMARK   42  A    between atoms: _101  and  _103
REMARK   43  A    between atoms: _103  and  _104
REMARK   44  A    between atoms: _103  and  _106
REMARK   45  A    between atoms: _106  and  _107
REMARK   46  A    between atoms: _112  and  _114
REMARK   47  A    between atoms: _114  and  _115
REMARK   48  A    between atoms: _114  and  _117
REMARK   49  A    between atoms: _120  and  _122
REMARK   50  A    between atoms: _122  and  _123
REMARK   51  A    between atoms: _126  and  _128
REMARK   52  A    between atoms: _128  and  _129
REMARK   53  A    between atoms: _128  and  _131
REMARK   54  A    between atoms: _131  and  _132
REMARK   55  A    between atoms: _135  and  _137
REMARK   56  A    between atoms: _137  and  _138
REMARK   57  A    between atoms: _137  and  _140
REMARK   58  A    between atoms: _140  and  _141
REMARK   59  A    between atoms: _141  and  _142
REMARK   60  A    between atoms: _142  and  _143
REMARK   61  A    between atoms: _143  and  _144
REMARK   62  A    between atoms: _148  and  _150
REMARK   63  A    between atoms: _150  and  _151
REMARK   64  A    between atoms: _150  and  _153
REMARK   65  A    between atoms: _153  and  _154
REMARK   66  A    between atoms: _154  and  _155
REMARK   67  A    between atoms: _155  and  _156
REMARK   68  A    between atoms: _156  and  _157
REMARK   69  A    between atoms: _161  and  _163
REMARK   70  A    between atoms: _163  and  _164
REMARK   71  A    between atoms: _163  and  _166
REMARK   72  A    between atoms: _166  and  _167
REMARK   73  A    between atoms: _170  and  _172
REMARK   74  A    between atoms: _172  and  _173
REMARK   75  A    between atoms: _172  and  _175
REMARK   76  A    between atoms: _175  and  _176
REMARK   77  A    between atoms: _176  and  _177
REMARK   78  A    between atoms: _177  and  _178
REMARK   79  A    between atoms: _187  and  _189
REMARK   80  A    between atoms: _189  and  _190
REMARK   81  A    between atoms: _189  and  _192
REMARK   82  A    between atoms: _192  and  _193
REMARK   83  A    between atoms: _193  and  _194
REMARK   84  A    between atoms: _197  and  _199
REMARK   85  A    between atoms: _199  and  _200
REMARK   86  A    between atoms: _199  and  _202
REMARK   87  A    between atoms: _202  and  _203
REMARK   88  A    between atoms: _206  and  _208
REMARK   89  A    between atoms: _208  and  _209
REMARK   90  A    between atoms: _208  and  _211
REMARK   91  A    between atoms: _211  and  _212
REMARK   92  A    between atoms: _212  and  _213
REMARK   93  A    between atoms: _215  and  _217
REMARK   94  A    between atoms: _217  and  _218
REMARK   95  A    between atoms: _217  and  _220
REMARK   96  A    between atoms: _220  and  _221
REMARK   97  A    between atoms: _224  and  _226
REMARK   98  A    between atoms: _226  and  _227
REMARK   99  A    between atoms: _226  and  _229
REMARK  100  A    between atoms: _229  and  _230
REMARK  101  A    between atoms: _232  and  _234
REMARK  102  A    between atoms: _234  and  _235
REMARK  103  A    between atoms: _234  and  _237
REMARK  104  A    between atoms: _237  and  _238
REMARK  105  A    between atoms: _241  and  _243
REMARK  106  A    between atoms: _243  and  _244
REMARK  107  A    between atoms: _243  and  _246
REMARK  108  A    between atoms: _246  and  _247
REMARK  109  A    between atoms: _250  and  _252
REMARK  110  A    between atoms: _252  and  _253
REMARK  111  A    between atoms: _252  and  _255
REMARK  112  A    between atoms: _255  and  _256
REMARK  113  A    between atoms: _261  and  _263
REMARK  114  A    between atoms: _263  and  _264
REMARK  115  A    between atoms: _263  and  _266
REMARK  116  A    between atoms: _269  and  _271
REMARK  117  A    between atoms: _271  and  _272
REMARK  118  A    between atoms: _271  and  _274
REMARK  119  A    between atoms: _274  and  _275
REMARK  120  A    between atoms: _280  and  _281
REMARK  121  A    between atoms: _283  and  _285
REMARK  122  A    between atoms: _285  and  _286
REMARK  123  A    between atoms: _285  and  _288
REMARK  124  A    between atoms: _288  and  _289
REMARK  125  A    between atoms: _292  and  _294
REMARK  126  A    between atoms: _294  and  _295
REMARK  127  A    between atoms: _294  and  _297
REMARK  128  A    between atoms: _300  and  _302
REMARK  129  A    between atoms: _302  and  _303
REMARK  130  A    between atoms: _302  and  _305
REMARK  131  A    between atoms: _305  and  _306
REMARK  132  A    between atoms: _306  and  _307
REMARK  133  A    between atoms: _309  and  _311
REMARK  134  A    between atoms: _311  and  _312
REMARK  135  A    between atoms: _311  and  _314
REMARK  136  A    between atoms: _314  and  _315
REMARK  137  A    between atoms: _315  and  _316
REMARK  138  A    between atoms: _319  and  _321
REMARK  139  A    between atoms: _321  and  _322
REMARK  140  A    between atoms: _321  and  _324
REMARK  141  A    between atoms: _324  and  _325
REMARK  142  A    between atoms: _328  and  _330
REMARK  143  A    between atoms: _330  and  _331
REMARK  144  A    between atoms: _330  and  _333
REMARK  145  A    between atoms: _333  and  _334
REMARK  146  A    between atoms: _334  and  _335
REMARK  147  A    between atoms: _337  and  _339
REMARK  148  A    between atoms: _339  and  _340
REMARK  149  A    between atoms: _339  and  _342
REMARK  150  A    between atoms: _342  and  _343
REMARK  151  A    between atoms: _346  and  _348
REMARK  152  A    between atoms: _348  and  _349
REMARK  153  A    between atoms: _352  and  _354
REMARK  154  A    between atoms: _354  and  _355
REMARK  155  A    between atoms: _354  and  _357
REMARK  156  A    between atoms: _357  and  _358
REMARK  157  A    between atoms: _363  and  _365
REMARK  158  A    between atoms: _365  and  _366
REMARK  159  A    between atoms: _365  and  _368
REMARK  160  A    between atoms: _368  and  _369
REMARK  161  A    between atoms: _372  and  _374
REMARK  162  A    between atoms: _374  and  _375
REMARK  163  A    between atoms: _374  and  _377
REMARK  164  A    between atoms: _379  and  _381
REMARK  165  A    between atoms: _381  and  _382
REMARK  166  A    between atoms: _381  and  _384
REMARK  167  A    between atoms: _384  and  _385
REMARK  168  A    between atoms: _385  and  _386
REMARK  169  A    between atoms: _391  and  _393
REMARK  170  A    between atoms: _393  and  _394
REMARK  171  A    between atoms: _393  and  _396
REMARK  172  A    between atoms: _396  and  _397
REMARK  173  A    between atoms: _397  and  _398
REMARK  174  A    between atoms: _404  and  _405
REMARK  175  A    between atoms: _410  and  _412
REMARK  176  A    between atoms: _412  and  _413
REMARK  177  A    between atoms: _412  and  _415
REMARK  178  A    between atoms: _415  and  _416
REMARK  179  A    between atoms: _418  and  _420
REMARK  180  A    between atoms: _420  and  _421
REMARK  181  A    between atoms: _420  and  _423
REMARK  182  A    between atoms: _423  and  _424
REMARK  183  A    between atoms: _429  and  _431
REMARK  184  A    between atoms: _431  and  _432
REMARK  185  A    between atoms: _431  and  _434
REMARK  186  A    between atoms: _434  and  _435
REMARK  187  A    between atoms: _438  and  _440
REMARK  188  A    between atoms: _440  and  _441
REMARK  189  A    between atoms: _440  and  _443
REMARK  190  A    between atoms: _446  and  _448
REMARK  191  A    between atoms: _448  and  _449
REMARK  192  A    between atoms: _448  and  _451
REMARK  193  A    between atoms: _454  and  _456
REMARK  194  A    between atoms: _456  and  _457
REMARK  195  A    between atoms: _456  and  _459
REMARK  196  A    between atoms: _459  and  _460
REMARK  197  A    between atoms: _460  and  _461
REMARK  198  A    between atoms: _461  and  _462
REMARK  199  A    between atoms: _462  and  _463
REMARK  200  A    between atoms: _467  and  _469
REMARK  201  A    between atoms: _469  and  _470
REMARK  202  A    between atoms: _469  and  _472
REMARK  203  A    between atoms: _472  and  _473
REMARK  204  A    between atoms: _476  and  _478
REMARK  205  A    between atoms: _478  and  _479
REMARK  206  A    between atoms: _478  and  _481
REMARK  207  A    between atoms: _481  and  _482
REMARK  208  A    between atoms: _485  and  _487
REMARK  209  A    between atoms: _487  and  _488
REMARK  210  A    between atoms: _487  and  _490
REMARK  211  A    between atoms: _490  and  _491
REMARK  212  A    between atoms: _494  and  _496
REMARK  213  A    between atoms: _496  and  _497
REMARK  214  A    between atoms: _496  and  _499
REMARK  215  A    between atoms: _499  and  _500
REMARK                            x       y       z     vdW  Elec       q    Type
REMARK                         _______ _______ _______ _____ _____    ______ ____
ROOT
ATOM      1  O   HOH     1      16.156  17.140  32.035  0.00  0.00    +0.000 OA
ENDROOT
TORSDOF 0
