REMARK  Name = ../refined-set-2016/4kb9/4kb9_pocket.pdb
REMARK  229 active torsions:
REMARK  status: ('A' for Active; 'I' for Inactive)
REMARK    1  A    between atoms: _1  and  _3
REMARK    2  A    between atoms: _3  and  _4
REMARK    3  A    between atoms: _3  and  _6
REMARK    4  A    between atoms: _6  and  _7
REMARK    5  A    between atoms: _7  and  _8
REMARK    6  A    between atoms: _8  and  _9
REMARK    7  A    between atoms: _18  and  _20
REMARK    8  A    between atoms: _20  and  _21
REMARK    9  A    between atoms: _20  and  _23
REMARK   10  A    between atoms: _23  and  _24
REMARK   11  A    between atoms: _27  and  _29
REMARK   12  A    between atoms: _29  and  _30
REMARK   13  A    between atoms: _29  and  _32
REMARK   14  A    between atoms: _32  and  _33
REMARK   15  A    between atoms: _36  and  _38
REMARK   16  A    between atoms: _38  and  _39
REMARK   17  A    between atoms: _38  and  _41
REMARK   18  A    between atoms: _41  and  _42
REMARK   19  A    between atoms: _45  and  _47
REMARK   20  A    between atoms: _47  and  _48
REMARK   21  A    between atoms: _47  and  _50
REMARK   22  A    between atoms: _50  and  _51
REMARK   23  A    between atoms: _54  and  _56
REMARK   24  A    between atoms: _56  and  _57
REMARK   25  A    between atoms: _59  and  _61
REMARK   26  A    between atoms: _61  and  _62
REMARK   27  A    between atoms: _65  and  _67
REMARK   28  A    between atoms: _67  and  _68
REMARK   29  A    between atoms: _67  and  _70
REMARK   30  A    between atoms: _70  and  _71
REMARK   31  A    between atoms: _74  and  _76
REMARK   32  A    between atoms: _76  and  _77
REMARK   33  A    between atoms: _76  and  _79
REMARK   34  A    between atoms: _79  and  _80
REMARK   35  A    between atoms: _83  and  _85
REMARK   36  A    between atoms: _85  and  _86
REMARK   37  A    between atoms: _85  and  _88
REMARK   38  A    between atoms: _88  and  _89
REMARK   39  A    between atoms: _92  and  _94
REMARK   40  A    between atoms: _94  and  _95
REMARK   41  A    between atoms: _94  and  _97
REMARK   42  A    between atoms: _100  and  _102
REMARK   43  A    between atoms: _102  and  _103
REMARK   44  A    between atoms: _102  and  _105
REMARK   45  A    between atoms: _105  and  _106
REMARK   46  A    between atoms: _106  and  _107
REMARK   47  A    between atoms: _107  and  _108
REMARK   48  A    between atoms: _108  and  _109
REMARK   49  A    between atoms: _113  and  _115
REMARK   50  A    between atoms: _115  and  _116
REMARK   51  A    between atoms: _115  and  _118
REMARK   52  A    between atoms: _118  and  _119
REMARK   53  A    between atoms: _119  and  _120
REMARK   54  A    between atoms: _122  and  _124
REMARK   55  A    between atoms: _124  and  _125
REMARK   56  A    between atoms: _124  and  _127
REMARK   57  A    between atoms: _127  and  _128
REMARK   58  A    between atoms: _131  and  _133
REMARK   59  A    between atoms: _133  and  _134
REMARK   60  A    between atoms: _136  and  _138
REMARK   61  A    between atoms: _138  and  _139
REMARK   62  A    between atoms: _141  and  _143
REMARK   63  A    between atoms: _143  and  _144
REMARK   64  A    between atoms: _143  and  _146
REMARK   65  A    between atoms: _146  and  _147
REMARK   66  A    between atoms: _150  and  _152
REMARK   67  A    between atoms: _152  and  _153
REMARK   68  A    between atoms: _155  and  _157
REMARK   69  A    between atoms: _157  and  _158
REMARK   70  A    between atoms: _160  and  _162
REMARK   71  A    between atoms: _162  and  _163
REMARK   72  A    between atoms: _162  and  _165
REMARK   73  A    between atoms: _165  and  _166
REMARK   74  A    between atoms: _172  and  _174
REMARK   75  A    between atoms: _174  and  _175
REMARK   76  A    between atoms: _174  and  _177
REMARK   77  A    between atoms: _177  and  _178
REMARK   78  A    between atoms: _181  and  _183
REMARK   79  A    between atoms: _183  and  _184
REMARK   80  A    between atoms: _183  and  _186
REMARK   81  A    between atoms: _189  and  _191
REMARK   82  A    between atoms: _191  and  _192
REMARK   83  A    between atoms: _191  and  _194
REMARK   84  A    between atoms: _194  and  _195
REMARK   85  A    between atoms: _198  and  _200
REMARK   86  A    between atoms: _200  and  _201
REMARK   87  A    between atoms: _200  and  _203
REMARK   88  A    between atoms: _203  and  _204
REMARK   89  A    between atoms: _208  and  _209
REMARK   90  A    between atoms: _214  and  _216
REMARK   91  A    between atoms: _216  and  _217
REMARK   92  A    between atoms: _216  and  _219
REMARK   93  A    between atoms: _222  and  _224
REMARK   94  A    between atoms: _224  and  _225
REMARK   95  A    between atoms: _224  and  _227
REMARK   96  A    between atoms: _227  and  _228
REMARK   97  A    between atoms: _233  and  _235
REMARK   98  A    between atoms: _235  and  _236
REMARK   99  A    between atoms: _235  and  _238
REMARK  100  A    between atoms: _238  and  _239
REMARK  101  A    between atoms: _242  and  _244
REMARK  102  A    between atoms: _244  and  _245
REMARK  103  A    between atoms: _247  and  _249
REMARK  104  A    between atoms: _249  and  _250
REMARK  105  A    between atoms: _249  and  _252
REMARK  106  A    between atoms: _252  and  _253
REMARK  107  A    between atoms: _253  and  _254
REMARK  108  A    between atoms: _254  and  _255
REMARK  109  A    between atoms: _264  and  _266
REMARK  110  A    between atoms: _266  and  _267
REMARK  111  A    between atoms: _266  and  _269
REMARK  112  A    between atoms: _269  and  _270
REMARK  113  A    between atoms: _275  and  _277
REMARK  114  A    between atoms: _277  and  _278
REMARK  115  A    between atoms: _277  and  _280
REMARK  116  A    between atoms: _280  and  _281
REMARK  117  A    between atoms: _281  and  _282
REMARK  118  A    between atoms: _282  and  _283
REMARK  119  A    between atoms: _292  and  _294
REMARK  120  A    between atoms: _294  and  _295
REMARK  121  A    between atoms: _294  and  _297
REMARK  122  A    between atoms: _297  and  _298
REMARK  123  A    between atoms: _301  and  _303
REMARK  124  A    between atoms: _303  and  _304
REMARK  125  A    between atoms: _303  and  _306
REMARK  126  A    between atoms: _306  and  _307
REMARK  127  A    between atoms: _310  and  _312
REMARK  128  A    between atoms: _312  and  _313
REMARK  129  A    between atoms: _312  and  _315
REMARK  130  A    between atoms: _315  and  _316
REMARK  131  A    between atoms: _319  and  _321
REMARK  132  A    between atoms: _321  and  _322
REMARK  133  A    between atoms: _321  and  _324
REMARK  134  A    between atoms: _324  and  _325
REMARK  135  A    between atoms: _328  and  _330
REMARK  136  A    between atoms: _330  and  _331
REMARK  137  A    between atoms: _333  and  _335
REMARK  138  A    between atoms: _335  and  _336
REMARK  139  A    between atoms: _339  and  _341
REMARK  140  A    between atoms: _341  and  _342
REMARK  141  A    between atoms: _341  and  _344
REMARK  142  A    between atoms: _344  and  _345
REMARK  143  A    between atoms: _348  and  _350
REMARK  144  A    between atoms: _350  and  _351
REMARK  145  A    between atoms: _350  and  _353
REMARK  146  A    between atoms: _353  and  _354
REMARK  147  A    between atoms: _357  and  _359
REMARK  148  A    between atoms: _359  and  _360
REMARK  149  A    between atoms: _359  and  _362
REMARK  150  A    between atoms: _362  and  _363
REMARK  151  A    between atoms: _366  and  _368
REMARK  152  A    between atoms: _368  and  _369
REMARK  153  A    between atoms: _368  and  _371
REMARK  154  A    between atoms: _374  and  _376
REMARK  155  A    between atoms: _376  and  _377
REMARK  156  A    between atoms: _376  and  _379
REMARK  157  A    between atoms: _379  and  _380
REMARK  158  A    between atoms: _380  and  _381
REMARK  159  A    between atoms: _381  and  _382
REMARK  160  A    between atoms: _382  and  _383
REMARK  161  A    between atoms: _387  and  _389
REMARK  162  A    between atoms: _389  and  _390
REMARK  163  A    between atoms: _389  and  _392
REMARK  164  A    between atoms: _392  and  _393
REMARK  165  A    between atoms: _393  and  _394
REMARK  166  A    between atoms: _396  and  _398
REMARK  167  A    between atoms: _398  and  _399
REMARK  168  A    between atoms: _398  and  _401
REMARK  169  A    between atoms: _401  and  _402
REMARK  170  A    between atoms: _405  and  _407
REMARK  171  A    between atoms: _407  and  _408
REMARK  172  A    between atoms: _410  and  _412
REMARK  173  A    between atoms: _412  and  _413
REMARK  174  A    between atoms: _415  and  _417
REMARK  175  A    between atoms: _417  and  _418
REMARK  176  A    between atoms: _417  and  _420
REMARK  177  A    between atoms: _420  and  _421
REMARK  178  A    between atoms: _424  and  _426
REMARK  179  A    between atoms: _426  and  _427
REMARK  180  A    between atoms: _429  and  _431
REMARK  181  A    between atoms: _431  and  _432
REMARK  182  A    between atoms: _434  and  _436
REMARK  183  A    between atoms: _436  and  _437
REMARK  184  A    between atoms: _436  and  _439
REMARK  185  A    between atoms: _439  and  _440
REMARK  186  A    between atoms: _446  and  _448
REMARK  187  A    between atoms: _448  and  _449
REMARK  188  A    between atoms: _448  and  _451
REMARK  189  A    between atoms: _451  and  _452
REMARK  190  A    between atoms: _455  and  _457
REMARK  191  A    between atoms: _457  and  _458
REMARK  192  A    between atoms: _457  and  _460
REMARK  193  A    between atoms: _463  and  _465
REMARK  194  A    between atoms: _465  and  _466
REMARK  195  A    between atoms: _465  and  _468
REMARK  196  A    between atoms: _468  and  _469
REMARK  197  A    between atoms: _473  and  _474
REMARK  198  A    between atoms: _479  and  _481
REMARK  199  A    between atoms: _481  and  _482
REMARK  200  A    between atoms: _481  and  _484
REMARK  201  A    between atoms: _484  and  _485
REMARK  202  A    between atoms: _489  and  _490
REMARK  203  A    between atoms: _495  and  _497
REMARK  204  A    between atoms: _497  and  _498
REMARK  205  A    between atoms: _497  and  _500
REMARK  206  A    between atoms: _503  and  _505
REMARK  207  A    between atoms: _505  and  _506
REMARK  208  A    between atoms: _505  and  _508
REMARK  209  A    between atoms: _508  and  _509
REMARK  210  A    between atoms: _514  and  _516
REMARK  211  A    between atoms: _516  and  _517
REMARK  212  A    between atoms: _516  and  _519
REMARK  213  A    between atoms: _519  and  _520
REMARK  214  A    between atoms: _523  and  _525
REMARK  215  A    between atoms: _525  and  _526
REMARK  216  A    between atoms: _525  and  _528
REMARK  217  A    between atoms: _528  and  _529
REMARK  218  A    between atoms: _532  and  _534
REMARK  219  A    between atoms: _534  and  _535
REMARK  220  A    between atoms: _537  and  _539
REMARK  221  A    between atoms: _539  and  _540
REMARK  222  A    between atoms: _539  and  _542
REMARK  223  A    between atoms: _542  and  _543
REMARK  224  A    between atoms: _543  and  _544
REMARK  225  A    between atoms: _544  and  _545
REMARK  226  A    between atoms: _554  and  _556
REMARK  227  A    between atoms: _556  and  _557
REMARK  228  A    between atoms: _556  and  _559
REMARK  229  A    between atoms: _559  and  _560
REMARK                            x       y       z     vdW  Elec       q    Type
REMARK                         _______ _______ _______ _____ _____    ______ ____
ROOT
ATOM      1  NE  ARG A   1       6.110  12.639  22.544  0.00  0.00    -0.265 N 
ATOM      2  CZ  ARG A   1       4.888  13.139  22.476  0.00  0.00    +0.342 C 
ATOM      3  NH2 ARG A   1       4.239  13.528  23.562  0.00  0.00    -0.292 N 
ATOM      4 HH21 ARG A   1       4.690  13.443  24.495  0.00  0.00    +0.255 HD
ATOM      5 HH22 ARG A   1       3.278  13.918  23.482  0.00  0.00    +0.255 HD
ATOM      6  NH1 ARG A   1       4.295  13.263  21.292  0.00  0.00    -0.292 N 
ATOM      7 HH11 ARG A   1       3.334  13.655  21.230  0.00  0.00    +0.255 HD
ATOM      8 HH12 ARG A   1       4.792  12.968  20.428  0.00  0.00    +0.255 HD
ATOM      9  HE  ARG A   1       6.556  12.364  21.646  0.00  0.00    +0.259 HD
ENDROOT
BRANCH   1  10
ATOM     10  CD  ARG A   1       6.895  12.436  23.761  0.00  0.00    +0.174 C 
BRANCH  10  11
ATOM     11  CG  ARG A   1       7.862  11.297  23.537  0.00  0.00    +0.045 C 
BRANCH  11  12
ATOM     12  CB  ARG A   1       8.671  11.044  24.802  0.00  0.00    +0.029 C 
BRANCH  12  13
ATOM     13  CA  ARG A   1       9.631   9.879  24.662  0.00  0.00    +0.133 C 
BRANCH  13  14
ATOM     14  N   ARG A   1       8.922   8.616  24.548  0.00  0.00    -0.239 NA
ATOM     15  H   ARG A   1       7.883   8.608  24.603  0.00  0.00    +0.142 HD
ENDBRANCH  13  14
BRANCH  13  16
ATOM     16  C   ARG A   1      10.572   9.865  25.849  0.00  0.00    +0.224 C 
ATOM     17  O   ARG A   1      10.184   9.386  26.915  0.00  0.00    -0.287 OA
ENDBRANCH  13  16
ENDBRANCH  12  13
ENDBRANCH  11  12
ENDBRANCH  10  11
ENDBRANCH   1  10
TORSDOF 6
REMARK  Name = ../refined-set-2016/4kb9/4kb9_pocket.pdb
REMARK  229 active torsions:
REMARK  status: ('A' for Active; 'I' for Inactive)
REMARK    1  A    between atoms: _1  and  _3
REMARK    2  A    between atoms: _3  and  _4
REMARK    3  A    between atoms: _3  and  _6
REMARK    4  A    between atoms: _6  and  _7
REMARK    5  A    between atoms: _7  and  _8
REMARK    6  A    between atoms: _8  and  _9
REMARK    7  A    between atoms: _18  and  _20
REMARK    8  A    between atoms: _20  and  _21
REMARK    9  A    between atoms: _20  and  _23
REMARK   10  A    between atoms: _23  and  _24
REMARK   11  A    between atoms: _27  and  _29
REMARK   12  A    between atoms: _29  and  _30
REMARK   13  A    between atoms: _29  and  _32
REMARK   14  A    between atoms: _32  and  _33
REMARK   15  A    between atoms: _36  and  _38
REMARK   16  A    between atoms: _38  and  _39
REMARK   17  A    between atoms: _38  and  _41
REMARK   18  A    between atoms: _41  and  _42
REMARK   19  A    between atoms: _45  and  _47
REMARK   20  A    between atoms: _47  and  _48
REMARK   21  A    between atoms: _47  and  _50
REMARK   22  A    between atoms: _50  and  _51
REMARK   23  A    between atoms: _54  and  _56
REMARK   24  A    between atoms: _56  and  _57
REMARK   25  A    between atoms: _59  and  _61
REMARK   26  A    between atoms: _61  and  _62
REMARK   27  A    between atoms: _65  and  _67
REMARK   28  A    between atoms: _67  and  _68
REMARK   29  A    between atoms: _67  and  _70
REMARK   30  A    between atoms: _70  and  _71
REMARK   31  A    between atoms: _74  and  _76
REMARK   32  A    between atoms: _76  and  _77
REMARK   33  A    between atoms: _76  and  _79
REMARK   34  A    between atoms: _79  and  _80
REMARK   35  A    between atoms: _83  and  _85
REMARK   36  A    between atoms: _85  and  _86
REMARK   37  A    between atoms: _85  and  _88
REMARK   38  A    between atoms: _88  and  _89
REMARK   39  A    between atoms: _92  and  _94
REMARK   40  A    between atoms: _94  and  _95
REMARK   41  A    between atoms: _94  and  _97
REMARK   42  A    between atoms: _100  and  _102
REMARK   43  A    between atoms: _102  and  _103
REMARK   44  A    between atoms: _102  and  _105
REMARK   45  A    between atoms: _105  and  _106
REMARK   46  A    between atoms: _106  and  _107
REMARK   47  A    between atoms: _107  and  _108
REMARK   48  A    between atoms: _108  and  _109
REMARK   49  A    between atoms: _113  and  _115
REMARK   50  A    between atoms: _115  and  _116
REMARK   51  A    between atoms: _115  and  _118
REMARK   52  A    between atoms: _118  and  _119
REMARK   53  A    between atoms: _119  and  _120
REMARK   54  A    between atoms: _122  and  _124
REMARK   55  A    between atoms: _124  and  _125
REMARK   56  A    between atoms: _124  and  _127
REMARK   57  A    between atoms: _127  and  _128
REMARK   58  A    between atoms: _131  and  _133
REMARK   59  A    between atoms: _133  and  _134
REMARK   60  A    between atoms: _136  and  _138
REMARK   61  A    between atoms: _138  and  _139
REMARK   62  A    between atoms: _141  and  _143
REMARK   63  A    between atoms: _143  and  _144
REMARK   64  A    between atoms: _143  and  _146
REMARK   65  A    between atoms: _146  and  _147
REMARK   66  A    between atoms: _150  and  _152
REMARK   67  A    between atoms: _152  and  _153
REMARK   68  A    between atoms: _155  and  _157
REMARK   69  A    between atoms: _157  and  _158
REMARK   70  A    between atoms: _160  and  _162
REMARK   71  A    between atoms: _162  and  _163
REMARK   72  A    between atoms: _162  and  _165
REMARK   73  A    between atoms: _165  and  _166
REMARK   74  A    between atoms: _172  and  _174
REMARK   75  A    between atoms: _174  and  _175
REMARK   76  A    between atoms: _174  and  _177
REMARK   77  A    between atoms: _177  and  _178
REMARK   78  A    between atoms: _181  and  _183
REMARK   79  A    between atoms: _183  and  _184
REMARK   80  A    between atoms: _183  and  _186
REMARK   81  A    between atoms: _189  and  _191
REMARK   82  A    between atoms: _191  and  _192
REMARK   83  A    between atoms: _191  and  _194
REMARK   84  A    between atoms: _194  and  _195
REMARK   85  A    between atoms: _198  and  _200
REMARK   86  A    between atoms: _200  and  _201
REMARK   87  A    between atoms: _200  and  _203
REMARK   88  A    between atoms: _203  and  _204
REMARK   89  A    between atoms: _208  and  _209
REMARK   90  A    between atoms: _214  and  _216
REMARK   91  A    between atoms: _216  and  _217
REMARK   92  A    between atoms: _216  and  _219
REMARK   93  A    between atoms: _222  and  _224
REMARK   94  A    between atoms: _224  and  _225
REMARK   95  A    between atoms: _224  and  _227
REMARK   96  A    between atoms: _227  and  _228
REMARK   97  A    between atoms: _233  and  _235
REMARK   98  A    between atoms: _235  and  _236
REMARK   99  A    between atoms: _235  and  _238
REMARK  100  A    between atoms: _238  and  _239
REMARK  101  A    between atoms: _242  and  _244
REMARK  102  A    between atoms: _244  and  _245
REMARK  103  A    between atoms: _247  and  _249
REMARK  104  A    between atoms: _249  and  _250
REMARK  105  A    between atoms: _249  and  _252
REMARK  106  A    between atoms: _252  and  _253
REMARK  107  A    between atoms: _253  and  _254
REMARK  108  A    between atoms: _254  and  _255
REMARK  109  A    between atoms: _264  and  _266
REMARK  110  A    between atoms: _266  and  _267
REMARK  111  A    between atoms: _266  and  _269
REMARK  112  A    between atoms: _269  and  _270
REMARK  113  A    between atoms: _275  and  _277
REMARK  114  A    between atoms: _277  and  _278
REMARK  115  A    between atoms: _277  and  _280
REMARK  116  A    between atoms: _280  and  _281
REMARK  117  A    between atoms: _281  and  _282
REMARK  118  A    between atoms: _282  and  _283
REMARK  119  A    between atoms: _292  and  _294
REMARK  120  A    between atoms: _294  and  _295
REMARK  121  A    between atoms: _294  and  _297
REMARK  122  A    between atoms: _297  and  _298
REMARK  123  A    between atoms: _301  and  _303
REMARK  124  A    between atoms: _303  and  _304
REMARK  125  A    between atoms: _303  and  _306
REMARK  126  A    between atoms: _306  and  _307
REMARK  127  A    between atoms: _310  and  _312
REMARK  128  A    between atoms: _312  and  _313
REMARK  129  A    between atoms: _312  and  _315
REMARK  130  A    between atoms: _315  and  _316
REMARK  131  A    between atoms: _319  and  _321
REMARK  132  A    between atoms: _321  and  _322
REMARK  133  A    between atoms: _321  and  _324
REMARK  134  A    between atoms: _324  and  _325
REMARK  135  A    between atoms: _328  and  _330
REMARK  136  A    between atoms: _330  and  _331
REMARK  137  A    between atoms: _333  and  _335
REMARK  138  A    between atoms: _335  and  _336
REMARK  139  A    between atoms: _339  and  _341
REMARK  140  A    between atoms: _341  and  _342
REMARK  141  A    between atoms: _341  and  _344
REMARK  142  A    between atoms: _344  and  _345
REMARK  143  A    between atoms: _348  and  _350
REMARK  144  A    between atoms: _350  and  _351
REMARK  145  A    between atoms: _350  and  _353
REMARK  146  A    between atoms: _353  and  _354
REMARK  147  A    between atoms: _357  and  _359
REMARK  148  A    between atoms: _359  and  _360
REMARK  149  A    between atoms: _359  and  _362
REMARK  150  A    between atoms: _362  and  _363
REMARK  151  A    between atoms: _366  and  _368
REMARK  152  A    between atoms: _368  and  _369
REMARK  153  A    between atoms: _368  and  _371
REMARK  154  A    between atoms: _374  and  _376
REMARK  155  A    between atoms: _376  and  _377
REMARK  156  A    between atoms: _376  and  _379
REMARK  157  A    between atoms: _379  and  _380
REMARK  158  A    between atoms: _380  and  _381
REMARK  159  A    between atoms: _381  and  _382
REMARK  160  A    between atoms: _382  and  _383
REMARK  161  A    between atoms: _387  and  _389
REMARK  162  A    between atoms: _389  and  _390
REMARK  163  A    between atoms: _389  and  _392
REMARK  164  A    between atoms: _392  and  _393
REMARK  165  A    between atoms: _393  and  _394
REMARK  166  A    between atoms: _396  and  _398
REMARK  167  A    between atoms: _398  and  _399
REMARK  168  A    between atoms: _398  and  _401
REMARK  169  A    between atoms: _401  and  _402
REMARK  170  A    between atoms: _405  and  _407
REMARK  171  A    between atoms: _407  and  _408
REMARK  172  A    between atoms: _410  and  _412
REMARK  173  A    between atoms: _412  and  _413
REMARK  174  A    between atoms: _415  and  _417
REMARK  175  A    between atoms: _417  and  _418
REMARK  176  A    between atoms: _417  and  _420
REMARK  177  A    between atoms: _420  and  _421
REMARK  178  A    between atoms: _424  and  _426
REMARK  179  A    between atoms: _426  and  _427
REMARK  180  A    between atoms: _429  and  _431
REMARK  181  A    between atoms: _431  and  _432
REMARK  182  A    between atoms: _434  and  _436
REMARK  183  A    between atoms: _436  and  _437
REMARK  184  A    between atoms: _436  and  _439
REMARK  185  A    between atoms: _439  and  _440
REMARK  186  A    between atoms: _446  and  _448
REMARK  187  A    between atoms: _448  and  _449
REMARK  188  A    between atoms: _448  and  _451
REMARK  189  A    between atoms: _451  and  _452
REMARK  190  A    between atoms: _455  and  _457
REMARK  191  A    between atoms: _457  and  _458
REMARK  192  A    between atoms: _457  and  _460
REMARK  193  A    between atoms: _463  and  _465
REMARK  194  A    between atoms: _465  and  _466
REMARK  195  A    between atoms: _465  and  _468
REMARK  196  A    between atoms: _468  and  _469
REMARK  197  A    between atoms: _473  and  _474
REMARK  198  A    between atoms: _479  and  _481
REMARK  199  A    between atoms: _481  and  _482
REMARK  200  A    between atoms: _481  and  _484
REMARK  201  A    between atoms: _484  and  _485
REMARK  202  A    between atoms: _489  and  _490
REMARK  203  A    between atoms: _495  and  _497
REMARK  204  A    between atoms: _497  and  _498
REMARK  205  A    between atoms: _497  and  _500
REMARK  206  A    between atoms: _503  and  _505
REMARK  207  A    between atoms: _505  and  _506
REMARK  208  A    between atoms: _505  and  _508
REMARK  209  A    between atoms: _508  and  _509
REMARK  210  A    between atoms: _514  and  _516
REMARK  211  A    between atoms: _516  and  _517
REMARK  212  A    between atoms: _516  and  _519
REMARK  213  A    between atoms: _519  and  _520
REMARK  214  A    between atoms: _523  and  _525
REMARK  215  A    between atoms: _525  and  _526
REMARK  216  A    between atoms: _525  and  _528
REMARK  217  A    between atoms: _528  and  _529
REMARK  218  A    between atoms: _532  and  _534
REMARK  219  A    between atoms: _534  and  _535
REMARK  220  A    between atoms: _537  and  _539
REMARK  221  A    between atoms: _539  and  _540
REMARK  222  A    between atoms: _539  and  _542
REMARK  223  A    between atoms: _542  and  _543
REMARK  224  A    between atoms: _543  and  _544
REMARK  225  A    between atoms: _544  and  _545
REMARK  226  A    between atoms: _554  and  _556
REMARK  227  A    between atoms: _556  and  _557
REMARK  228  A    between atoms: _556  and  _559
REMARK  229  A    between atoms: _559  and  _560
REMARK                            x       y       z     vdW  Elec       q    Type
REMARK                         _______ _______ _______ _____ _____    ______ ____
ROOT
ATOM      1  C   GLY A   5      18.211  19.191  18.694  0.00  0.00    +0.243 C 
ATOM      2  N   ALA A   6      18.250  19.526  19.966  0.00  0.00    -0.297 N 
ATOM      3  H   ALA A   6      18.322  18.762  20.668  0.00  0.00    +0.150 HD
ATOM      4  O   GLY A   5      18.131  20.040  17.797  0.00  0.00    -0.273 OA
ENDROOT
BRANCH   2   5
ATOM      5  CA  ALA A   6      18.199  20.888  20.451  0.00  0.00    +0.149 C 
ATOM      6  CB  ALA A   6      17.209  20.965  21.608  0.00  0.00    +0.031 C 
BRANCH   5   7
ATOM      7  C   ALA A   6      19.579  21.353  20.919  0.00  0.00    +0.241 C 
ATOM      8  O   ALA A   6      20.200  20.754  21.761  0.00  0.00    -0.273 OA
ATOM      9  N   ASP A   7      20.051  22.485  20.363  0.00  0.00    -0.297 N 
ATOM     10  H   ASP A   7      19.517  22.969  19.613  0.00  0.00    +0.150 HD
BRANCH   9  11
ATOM     11  CA  ASP A   7      21.310  23.014  20.826  0.00  0.00    +0.160 C 
BRANCH  11  12
ATOM     12  C   ASP A   7      21.250  23.502  22.261  0.00  0.00    +0.241 C 
ATOM     13  O   ASP A   7      22.223  23.397  23.008  0.00  0.00    -0.273 OA
ATOM     14  N   ASP A   8      20.117  24.062  22.612  0.00  0.00    -0.297 N 
ATOM     15  H   ASP A   8      19.323  23.958  21.948  0.00  0.00    +0.150 HD
BRANCH  14  16
ATOM     16  CA  ASP A   8      19.852  24.810  23.826  0.00  0.00    +0.160 C 
BRANCH  16  17
ATOM     17  C   ASP A   8      18.660  24.233  24.585  0.00  0.00    +0.241 C 
ATOM     18  N   THR A   9      18.588  24.569  25.842  0.00  0.00    -0.295 N 
ATOM     19  H   THR A   9      19.348  25.161  26.233  0.00  0.00    +0.150 HD
ATOM     20  O   ASP A   8      17.842  23.535  23.996  0.00  0.00    -0.273 OA
BRANCH  18  21
ATOM     21  CA  THR A   9      17.498  24.162  26.741  0.00  0.00    +0.176 C 
BRANCH  21  22
ATOM     22  C   THR A   9      16.420  25.226  26.732  0.00  0.00    +0.243 C 
ATOM     23  O   THR A   9      16.760  26.418  26.929  0.00  0.00    -0.273 OA
ATOM     24  N   VAL A  10      15.165  24.852  26.513  0.00  0.00    -0.298 N 
ATOM     25  H   VAL A  10      14.958  23.837  26.419  0.00  0.00    +0.150 HD
BRANCH  24  26
ATOM     26  CA  VAL A  10      14.075  25.791  26.399  0.00  0.00    +0.137 C 
BRANCH  26  27
ATOM     27  CB  VAL A  10      13.553  25.908  24.936  0.00  0.00    +0.026 C 
ATOM     28  CG2 VAL A  10      12.625  27.111  24.858  0.00  0.00    +0.002 C 
ATOM     29  CG1 VAL A  10      14.651  25.980  23.933  0.00  0.00    +0.002 C 
ENDBRANCH  26  27
BRANCH  26  30
ATOM     30  C   VAL A  10      12.953  25.317  27.310  0.00  0.00    +0.227 C 
ATOM     31  O   VAL A  10      12.515  24.168  27.193  0.00  0.00    -0.286 OA
ENDBRANCH  26  30
ENDBRANCH  24  26
ENDBRANCH  21  22
BRANCH  21  32
ATOM     32  CB  THR A   9      18.100  23.963  28.119  0.00  0.00    +0.137 C 
ATOM     33  CG2 THR A   9      17.052  23.735  29.206  0.00  0.00    +0.034 C 
BRANCH  32  34
ATOM     34  OG1 THR A   9      18.969  22.799  28.019  0.00  0.00    -0.382 OA
ATOM     35  HG1 THR A   9      19.673  22.971  27.344  0.00  0.00    +0.210 HD
ENDBRANCH  32  34
ENDBRANCH  21  32
ENDBRANCH  18  21
ENDBRANCH  16  17
BRANCH  16  36
ATOM     36  CB  ASP A   8      19.542  26.275  23.523  0.00  0.00    +0.143 C 
BRANCH  36  37
ATOM     37  CG  ASP A   8      20.426  26.938  22.498  0.00  0.00    +0.367 C 
ATOM     38  OD2 ASP A   8      21.660  26.752  22.594  0.00  0.00    -0.246 OA
ATOM     39  OD1 ASP A   8      19.879  27.642  21.597  0.00  0.00    -0.246 OA
ENDBRANCH  36  37
ENDBRANCH  16  36
ENDBRANCH  14  16
ENDBRANCH  11  12
BRANCH  11  40
ATOM     40  CB  ASP A   7      21.703  24.200  19.945  0.00  0.00    +0.143 C 
BRANCH  40  41
ATOM     41  CG  ASP A   7      22.055  23.897  18.511  0.00  0.00    +0.367 C 
ATOM     42  OD2 ASP A   7      22.280  22.757  18.072  0.00  0.00    -0.246 OA
ATOM     43  OD1 ASP A   7      22.181  24.917  17.803  0.00  0.00    -0.246 OA
ENDBRANCH  40  41
ENDBRANCH  11  40
ENDBRANCH   9  11
ENDBRANCH   5   7
ENDBRANCH   2   5
BRANCH   1  44
ATOM     44  CA  GLY A   5      18.309  17.729  18.359  0.00  0.00    +0.176 C 
BRANCH  44  47
ATOM     45  C   THR A   4      19.686  16.551  20.003  0.00  0.00    +0.243 C 
ATOM     46  O   THR A   4      20.737  16.999  19.547  0.00  0.00    -0.273 OA
ATOM     47  N   GLY A   5      18.516  16.842  19.471  0.00  0.00    -0.295 N 
ATOM     48  H   GLY A   5      17.676  16.394  19.889  0.00  0.00    +0.150 HD
BRANCH  45  49
ATOM     49  CA  THR A   4      19.731  15.692  21.240  0.00  0.00    +0.176 C 
BRANCH  49  52
ATOM     50  C   ASP A   3      17.878  16.603  22.510  0.00  0.00    +0.241 C 
ATOM     51  O   ASP A   3      18.418  17.712  22.510  0.00  0.00    -0.273 OA
ATOM     52  N   THR A   4      18.420  15.542  21.865  0.00  0.00    -0.295 N 
ATOM     53  H   THR A   4      17.911  14.636  21.816  0.00  0.00    +0.150 HD
BRANCH  50  54
ATOM     54  CA  ASP A   3      16.565  16.330  23.188  0.00  0.00    +0.160 C 
BRANCH  54  56
ATOM     55  C   LEU A   2      16.104  14.948  25.156  0.00  0.00    +0.241 C 
ATOM     56  N   ASP A   3      16.668  16.041  24.613  0.00  0.00    -0.297 N 
ATOM     57  H   ASP A   3      17.192  16.698  25.226  0.00  0.00    +0.150 HD
ATOM     58  O   LEU A   2      15.673  14.019  24.484  0.00  0.00    -0.273 OA
BRANCH  55  59
ATOM     59  CA  LEU A   2      15.976  14.928  26.666  0.00  0.00    +0.149 C 
BRANCH  59  61
ATOM     60  C   LEU A   1      13.857  16.038  26.940  0.00  0.00    +0.238 C 
ATOM     61  N   LEU A   2      14.557  14.931  27.002  0.00  0.00    -0.297 N 
ATOM     62  H   LEU A   2      14.095  14.046  27.294  0.00  0.00    +0.150 HD
ATOM     63  O   LEU A   1      14.386  17.136  26.696  0.00  0.00    -0.274 OA
BRANCH  60  64
ATOM     64  CA  LEU A   1      12.344  15.953  27.137  0.00  0.00    +0.145 C 
BRANCH  64  65
ATOM     65  N   LEU A   1      11.897  16.890  28.137  0.00  0.00    -0.238 NA
ATOM     66  H   LEU A   1      11.729  17.874  27.846  0.00  0.00    +0.142 HD
ENDBRANCH  64  65
BRANCH  64  67
ATOM     67  CB  LEU A   1      11.580  16.335  25.854  0.00  0.00    +0.026 C 
BRANCH  67  68
ATOM     68  CG  LEU A   1      11.656  15.514  24.613  0.00  0.00    +0.002 C 
ATOM     69  CD2 LEU A   1      11.091  14.131  24.868  0.00  0.00    +0.000 C 
ATOM     70  CD1 LEU A   1      10.866  16.233  23.521  0.00  0.00    +0.000 C 
ENDBRANCH  67  68
ENDBRANCH  64  67
ENDBRANCH  60  64
ENDBRANCH  59  61
BRANCH  59  71
ATOM     71  CB  LEU A   2      16.673  13.717  27.244  0.00  0.00    +0.029 C 
BRANCH  71  72
ATOM     72  CG  LEU A   2      16.599  13.586  28.767  0.00  0.00    +0.002 C 
ATOM     73  CD2 LEU A   2      17.172  14.779  29.473  0.00  0.00    +0.000 C 
ATOM     74  CD1 LEU A   2      17.320  12.300  29.208  0.00  0.00    +0.000 C 
ENDBRANCH  71  72
ENDBRANCH  59  71
ENDBRANCH  55  59
ENDBRANCH  54  56
BRANCH  54  75
ATOM     75  CB  ASP A   3      15.656  17.564  23.033  0.00  0.00    +0.143 C 
BRANCH  75  76
ATOM     76  CG  ASP A   3      15.241  17.813  21.598  0.00  0.00    +0.367 C 
ATOM     77  OD2 ASP A   3      14.377  18.678  21.401  0.00  0.00    -0.246 OA
ATOM     78  OD1 ASP A   3      15.808  17.110  20.698  0.00  0.00    -0.246 OA
ENDBRANCH  75  76
ENDBRANCH  54  75
ENDBRANCH  50  54
ENDBRANCH  49  52
BRANCH  49  79
ATOM     79  CB  THR A   4      20.294  14.319  20.849  0.00  0.00    +0.137 C 
ATOM     80  CG2 THR A   4      20.477  13.462  22.087  0.00  0.00    +0.034 C 
BRANCH  79  81
ATOM     81  OG1 THR A   4      19.392  13.647  19.962  0.00  0.00    -0.382 OA
ATOM     82  HG1 THR A   4      19.268  14.191  19.144  0.00  0.00    +0.210 HD
ENDBRANCH  79  81
ENDBRANCH  49  79
ENDBRANCH  45  49
ENDBRANCH  44  47
ENDBRANCH   1  44
TORSDOF 35
REMARK  Name = ../refined-set-2016/4kb9/4kb9_pocket.pdb
REMARK  229 active torsions:
REMARK  status: ('A' for Active; 'I' for Inactive)
REMARK    1  A    between atoms: _1  and  _3
REMARK    2  A    between atoms: _3  and  _4
REMARK    3  A    between atoms: _3  and  _6
REMARK    4  A    between atoms: _6  and  _7
REMARK    5  A    between atoms: _7  and  _8
REMARK    6  A    between atoms: _8  and  _9
REMARK    7  A    between atoms: _18  and  _20
REMARK    8  A    between atoms: _20  and  _21
REMARK    9  A    between atoms: _20  and  _23
REMARK   10  A    between atoms: _23  and  _24
REMARK   11  A    between atoms: _27  and  _29
REMARK   12  A    between atoms: _29  and  _30
REMARK   13  A    between atoms: _29  and  _32
REMARK   14  A    between atoms: _32  and  _33
REMARK   15  A    between atoms: _36  and  _38
REMARK   16  A    between atoms: _38  and  _39
REMARK   17  A    between atoms: _38  and  _41
REMARK   18  A    between atoms: _41  and  _42
REMARK   19  A    between atoms: _45  and  _47
REMARK   20  A    between atoms: _47  and  _48
REMARK   21  A    between atoms: _47  and  _50
REMARK   22  A    between atoms: _50  and  _51
REMARK   23  A    between atoms: _54  and  _56
REMARK   24  A    between atoms: _56  and  _57
REMARK   25  A    between atoms: _59  and  _61
REMARK   26  A    between atoms: _61  and  _62
REMARK   27  A    between atoms: _65  and  _67
REMARK   28  A    between atoms: _67  and  _68
REMARK   29  A    between atoms: _67  and  _70
REMARK   30  A    between atoms: _70  and  _71
REMARK   31  A    between atoms: _74  and  _76
REMARK   32  A    between atoms: _76  and  _77
REMARK   33  A    between atoms: _76  and  _79
REMARK   34  A    between atoms: _79  and  _80
REMARK   35  A    between atoms: _83  and  _85
REMARK   36  A    between atoms: _85  and  _86
REMARK   37  A    between atoms: _85  and  _88
REMARK   38  A    between atoms: _88  and  _89
REMARK   39  A    between atoms: _92  and  _94
REMARK   40  A    between atoms: _94  and  _95
REMARK   41  A    between atoms: _94  and  _97
REMARK   42  A    between atoms: _100  and  _102
REMARK   43  A    between atoms: _102  and  _103
REMARK   44  A    between atoms: _102  and  _105
REMARK   45  A    between atoms: _105  and  _106
REMARK   46  A    between atoms: _106  and  _107
REMARK   47  A    between atoms: _107  and  _108
REMARK   48  A    between atoms: _108  and  _109
REMARK   49  A    between atoms: _113  and  _115
REMARK   50  A    between atoms: _115  and  _116
REMARK   51  A    between atoms: _115  and  _118
REMARK   52  A    between atoms: _118  and  _119
REMARK   53  A    between atoms: _119  and  _120
REMARK   54  A    between atoms: _122  and  _124
REMARK   55  A    between atoms: _124  and  _125
REMARK   56  A    between atoms: _124  and  _127
REMARK   57  A    between atoms: _127  and  _128
REMARK   58  A    between atoms: _131  and  _133
REMARK   59  A    between atoms: _133  and  _134
REMARK   60  A    between atoms: _136  and  _138
REMARK   61  A    between atoms: _138  and  _139
REMARK   62  A    between atoms: _141  and  _143
REMARK   63  A    between atoms: _143  and  _144
REMARK   64  A    between atoms: _143  and  _146
REMARK   65  A    between atoms: _146  and  _147
REMARK   66  A    between atoms: _150  and  _152
REMARK   67  A    between atoms: _152  and  _153
REMARK   68  A    between atoms: _155  and  _157
REMARK   69  A    between atoms: _157  and  _158
REMARK   70  A    between atoms: _160  and  _162
REMARK   71  A    between atoms: _162  and  _163
REMARK   72  A    between atoms: _162  and  _165
REMARK   73  A    between atoms: _165  and  _166
REMARK   74  A    between atoms: _172  and  _174
REMARK   75  A    between atoms: _174  and  _175
REMARK   76  A    between atoms: _174  and  _177
REMARK   77  A    between atoms: _177  and  _178
REMARK   78  A    between atoms: _181  and  _183
REMARK   79  A    between atoms: _183  and  _184
REMARK   80  A    between atoms: _183  and  _186
REMARK   81  A    between atoms: _189  and  _191
REMARK   82  A    between atoms: _191  and  _192
REMARK   83  A    between atoms: _191  and  _194
REMARK   84  A    between atoms: _194  and  _195
REMARK   85  A    between atoms: _198  and  _200
REMARK   86  A    between atoms: _200  and  _201
REMARK   87  A    between atoms: _200  and  _203
REMARK   88  A    between atoms: _203  and  _204
REMARK   89  A    between atoms: _208  and  _209
REMARK   90  A    between atoms: _214  and  _216
REMARK   91  A    between atoms: _216  and  _217
REMARK   92  A    between atoms: _216  and  _219
REMARK   93  A    between atoms: _222  and  _224
REMARK   94  A    between atoms: _224  and  _225
REMARK   95  A    between atoms: _224  and  _227
REMARK   96  A    between atoms: _227  and  _228
REMARK   97  A    between atoms: _233  and  _235
REMARK   98  A    between atoms: _235  and  _236
REMARK   99  A    between atoms: _235  and  _238
REMARK  100  A    between atoms: _238  and  _239
REMARK  101  A    between atoms: _242  and  _244
REMARK  102  A    between atoms: _244  and  _245
REMARK  103  A    between atoms: _247  and  _249
REMARK  104  A    between atoms: _249  and  _250
REMARK  105  A    between atoms: _249  and  _252
REMARK  106  A    between atoms: _252  and  _253
REMARK  107  A    between atoms: _253  and  _254
REMARK  108  A    between atoms: _254  and  _255
REMARK  109  A    between atoms: _264  and  _266
REMARK  110  A    between atoms: _266  and  _267
REMARK  111  A    between atoms: _266  and  _269
REMARK  112  A    between atoms: _269  and  _270
REMARK  113  A    between atoms: _275  and  _277
REMARK  114  A    between atoms: _277  and  _278
REMARK  115  A    between atoms: _277  and  _280
REMARK  116  A    between atoms: _280  and  _281
REMARK  117  A    between atoms: _281  and  _282
REMARK  118  A    between atoms: _282  and  _283
REMARK  119  A    between atoms: _292  and  _294
REMARK  120  A    between atoms: _294  and  _295
REMARK  121  A    between atoms: _294  and  _297
REMARK  122  A    between atoms: _297  and  _298
REMARK  123  A    between atoms: _301  and  _303
REMARK  124  A    between atoms: _303  and  _304
REMARK  125  A    between atoms: _303  and  _306
REMARK  126  A    between atoms: _306  and  _307
REMARK  127  A    between atoms: _310  and  _312
REMARK  128  A    between atoms: _312  and  _313
REMARK  129  A    between atoms: _312  and  _315
REMARK  130  A    between atoms: _315  and  _316
REMARK  131  A    between atoms: _319  and  _321
REMARK  132  A    between atoms: _321  and  _322
REMARK  133  A    between atoms: _321  and  _324
REMARK  134  A    between atoms: _324  and  _325
REMARK  135  A    between atoms: _328  and  _330
REMARK  136  A    between atoms: _330  and  _331
REMARK  137  A    between atoms: _333  and  _335
REMARK  138  A    between atoms: _335  and  _336
REMARK  139  A    between atoms: _339  and  _341
REMARK  140  A    between atoms: _341  and  _342
REMARK  141  A    between atoms: _341  and  _344
REMARK  142  A    between atoms: _344  and  _345
REMARK  143  A    between atoms: _348  and  _350
REMARK  144  A    between atoms: _350  and  _351
REMARK  145  A    between atoms: _350  and  _353
REMARK  146  A    between atoms: _353  and  _354
REMARK  147  A    between atoms: _357  and  _359
REMARK  148  A    between atoms: _359  and  _360
REMARK  149  A    between atoms: _359  and  _362
REMARK  150  A    between atoms: _362  and  _363
REMARK  151  A    between atoms: _366  and  _368
REMARK  152  A    between atoms: _368  and  _369
REMARK  153  A    between atoms: _368  and  _371
REMARK  154  A    between atoms: _374  and  _376
REMARK  155  A    between atoms: _376  and  _377
REMARK  156  A    between atoms: _376  and  _379
REMARK  157  A    between atoms: _379  and  _380
REMARK  158  A    between atoms: _380  and  _381
REMARK  159  A    between atoms: _381  and  _382
REMARK  160  A    between atoms: _382  and  _383
REMARK  161  A    between atoms: _387  and  _389
REMARK  162  A    between atoms: _389  and  _390
REMARK  163  A    between atoms: _389  and  _392
REMARK  164  A    between atoms: _392  and  _393
REMARK  165  A    between atoms: _393  and  _394
REMARK  166  A    between atoms: _396  and  _398
REMARK  167  A    between atoms: _398  and  _399
REMARK  168  A    between atoms: _398  and  _401
REMARK  169  A    between atoms: _401  and  _402
REMARK  170  A    between atoms: _405  and  _407
REMARK  171  A    between atoms: _407  and  _408
REMARK  172  A    between atoms: _410  and  _412
REMARK  173  A    between atoms: _412  and  _413
REMARK  174  A    between atoms: _415  and  _417
REMARK  175  A    between atoms: _417  and  _418
REMARK  176  A    between atoms: _417  and  _420
REMARK  177  A    between atoms: _420  and  _421
REMARK  178  A    between atoms: _424  and  _426
REMARK  179  A    between atoms: _426  and  _427
REMARK  180  A    between atoms: _429  and  _431
REMARK  181  A    between atoms: _431  and  _432
REMARK  182  A    between atoms: _434  and  _436
REMARK  183  A    between atoms: _436  and  _437
REMARK  184  A    between atoms: _436  and  _439
REMARK  185  A    between atoms: _439  and  _440
REMARK  186  A    between atoms: _446  and  _448
REMARK  187  A    between atoms: _448  and  _449
REMARK  188  A    between atoms: _448  and  _451
REMARK  189  A    between atoms: _451  and  _452
REMARK  190  A    between atoms: _455  and  _457
REMARK  191  A    between atoms: _457  and  _458
REMARK  192  A    between atoms: _457  and  _460
REMARK  193  A    between atoms: _463  and  _465
REMARK  194  A    between atoms: _465  and  _466
REMARK  195  A    between atoms: _465  and  _468
REMARK  196  A    between atoms: _468  and  _469
REMARK  197  A    between atoms: _473  and  _474
REMARK  198  A    between atoms: _479  and  _481
REMARK  199  A    between atoms: _481  and  _482
REMARK  200  A    between atoms: _481  and  _484
REMARK  201  A    between atoms: _484  and  _485
REMARK  202  A    between atoms: _489  and  _490
REMARK  203  A    between atoms: _495  and  _497
REMARK  204  A    between atoms: _497  and  _498
REMARK  205  A    between atoms: _497  and  _500
REMARK  206  A    between atoms: _503  and  _505
REMARK  207  A    between atoms: _505  and  _506
REMARK  208  A    between atoms: _505  and  _508
REMARK  209  A    between atoms: _508  and  _509
REMARK  210  A    between atoms: _514  and  _516
REMARK  211  A    between atoms: _516  and  _517
REMARK  212  A    between atoms: _516  and  _519
REMARK  213  A    between atoms: _519  and  _520
REMARK  214  A    between atoms: _523  and  _525
REMARK  215  A    between atoms: _525  and  _526
REMARK  216  A    between atoms: _525  and  _528
REMARK  217  A    between atoms: _528  and  _529
REMARK  218  A    between atoms: _532  and  _534
REMARK  219  A    between atoms: _534  and  _535
REMARK  220  A    between atoms: _537  and  _539
REMARK  221  A    between atoms: _539  and  _540
REMARK  222  A    between atoms: _539  and  _542
REMARK  223  A    between atoms: _542  and  _543
REMARK  224  A    between atoms: _543  and  _544
REMARK  225  A    between atoms: _544  and  _545
REMARK  226  A    between atoms: _554  and  _556
REMARK  227  A    between atoms: _556  and  _557
REMARK  228  A    between atoms: _556  and  _559
REMARK  229  A    between atoms: _559  and  _560
REMARK                            x       y       z     vdW  Elec       q    Type
REMARK                         _______ _______ _______ _____ _____    ______ ____
ROOT
ATOM      1  C   GLY A   5      11.836  24.820  13.794  0.00  0.00    +0.243 C 
ATOM      2  N   ILE A   6      11.072  23.743  13.915  0.00  0.00    -0.297 N 
ATOM      3  H   ILE A   6      10.921  23.298  14.843  0.00  0.00    +0.150 HD
ATOM      4  O   GLY A   5      11.846  25.473  12.750  0.00  0.00    -0.273 OA
ENDROOT
BRANCH   2   5
ATOM      5  CA  ILE A   6      10.464  23.212  12.741  0.00  0.00    +0.149 C 
BRANCH   5   6
ATOM      6  C   ILE A   6       9.482  24.138  12.088  0.00  0.00    +0.241 C 
ATOM      7  N   GLY A   7       8.801  24.978  12.872  0.00  0.00    -0.295 N 
ATOM      8  H   GLY A   7       9.014  25.038  13.888  0.00  0.00    +0.150 HD
ATOM      9  O   ILE A   6       9.372  24.117  10.874  0.00  0.00    -0.273 OA
BRANCH   7  10
ATOM     10  CA  GLY A   7       7.761  25.805  12.290  0.00  0.00    +0.176 C 
BRANCH  10  11
ATOM     11  C   GLY A   7       8.152  27.235  12.035  0.00  0.00    +0.243 C 
ATOM     12  N   GLY A   8       9.361  27.613  12.386  0.00  0.00    -0.295 N 
ATOM     13  H   GLY A   8      10.022  26.889  12.733  0.00  0.00    +0.150 HD
ATOM     14  O   GLY A   7       7.319  27.960  11.484  0.00  0.00    -0.273 OA
BRANCH  12  15
ATOM     15  CA  GLY A   8       9.825  28.998  12.314  0.00  0.00    +0.176 C 
BRANCH  15  16
ATOM     16  C   GLY A   8      10.469  29.398  13.616  0.00  0.00    +0.243 C 
ATOM     17  O   GLY A   8      10.814  28.635  14.465  0.00  0.00    -0.273 OA
ATOM     18  N   PHE A   9      10.735  30.675  13.751  0.00  0.00    -0.297 N 
ATOM     19  H   PHE A   9      10.389  31.320  13.012  0.00  0.00    +0.150 HD
BRANCH  18  20
ATOM     20  CA  PHE A   9      11.475  31.254  14.854  0.00  0.00    +0.153 C 
BRANCH  20  21
ATOM     21  C   PHE A   9      10.559  31.832  15.919  0.00  0.00    +0.241 C 
ATOM     22  N   ILE A  10      11.048  31.792  17.140  0.00  0.00    -0.298 N 
ATOM     23  H   ILE A  10      11.937  31.279  17.310  0.00  0.00    +0.150 HD
ATOM     24  O   PHE A   9       9.475  32.362  15.658  0.00  0.00    -0.273 OA
BRANCH  22  25
ATOM     25  CA  ILE A  10      10.394  32.434  18.245  0.00  0.00    +0.137 C 
BRANCH  25  26
ATOM     26  C   ILE A  10      11.442  33.226  19.040  0.00  0.00    +0.227 C 
ATOM     27  O   ILE A  10      12.610  32.884  19.043  0.00  0.00    -0.286 OA
ENDBRANCH  25  26
BRANCH  25  28
ATOM     28  CB  ILE A  10       9.697  31.433  19.197  0.00  0.00    +0.026 C 
ATOM     29  CG2 ILE A  10       8.535  30.761  18.462  0.00  0.00    +0.002 C 
BRANCH  28  30
ATOM     30  CG1 ILE A  10      10.626  30.401  19.847  0.00  0.00    +0.002 C 
ATOM     31  CD1 ILE A  10      10.125  29.592  21.029  0.00  0.00    +0.000 C 
ENDBRANCH  28  30
ENDBRANCH  25  28
ENDBRANCH  22  25
ENDBRANCH  20  21
BRANCH  20  32
ATOM     32  CB  PHE A   9      12.360  32.397  14.328  0.00  0.00    +0.055 C 
BRANCH  32  33
ATOM     33  CG  PHE A   9      13.545  31.887  13.548  0.00  0.00    -0.020 A 
ATOM     34  CD2 PHE A   9      14.774  31.785  14.186  0.00  0.00    -0.004 A 
ATOM     35  CE2 PHE A   9      15.884  31.307  13.514  0.00  0.00    -0.000 A 
ATOM     36  CZ  PHE A   9      15.760  30.903  12.194  0.00  0.00    -0.000 A 
ATOM     37  CE1 PHE A   9      14.537  31.016  11.550  0.00  0.00    -0.000 A 
ATOM     38  CD1 PHE A   9      13.426  31.508  12.216  0.00  0.00    -0.004 A 
ENDBRANCH  32  33
ENDBRANCH  20  32
ENDBRANCH  18  20
ENDBRANCH  15  16
ENDBRANCH  12  15
ENDBRANCH  10  11
ENDBRANCH   7  10
ENDBRANCH   5   6
BRANCH   5  39
ATOM     39  CB  ILE A   6       9.764  21.853  13.069  0.00  0.00    +0.027 C 
ATOM     40  CG2 ILE A   6       8.432  21.915  13.720  0.00  0.00    +0.002 C 
BRANCH  39  41
ATOM     41  CG1 ILE A   6       9.773  20.972  11.821  0.00  0.00    +0.002 C 
ATOM     42  CD1 ILE A   6      10.037  19.534  12.056  0.00  0.00    +0.000 C 
ENDBRANCH  39  41
ENDBRANCH   5  39
ENDBRANCH   2   5
BRANCH   1  43
ATOM     43  CA  GLY A   5      12.597  25.179  15.049  0.00  0.00    +0.176 C 
BRANCH  43  46
ATOM     44  C   GLY A   4      14.134  26.987  15.177  0.00  0.00    +0.243 C 
ATOM     45  O   GLY A   4      15.070  26.227  15.343  0.00  0.00    -0.273 OA
ATOM     46  N   GLY A   5      12.876  26.601  15.064  0.00  0.00    -0.295 N 
ATOM     47  H   GLY A   5      12.108  27.298  14.988  0.00  0.00    +0.150 HD
BRANCH  44  48
ATOM     48  CA  GLY A   4      14.397  28.437  15.052  0.00  0.00    +0.176 C 
BRANCH  48  51
ATOM     49  C   ILE A   3      14.637  29.819  17.020  0.00  0.00    +0.241 C 
ATOM     50  O   ILE A   3      13.486  30.254  16.989  0.00  0.00    -0.273 OA
ATOM     51  N   GLY A   4      15.124  28.922  16.212  0.00  0.00    -0.295 N 
ATOM     52  H   GLY A   4      16.071  28.538  16.405  0.00  0.00    +0.150 HD
BRANCH  49  53
ATOM     53  CA  ILE A   3      15.585  30.312  18.083  0.00  0.00    +0.149 C 
BRANCH  53  55
ATOM     54  C   MET A   2      16.160  32.636  18.287  0.00  0.00    +0.241 C 
ATOM     55  N   ILE A   3      15.243  31.698  18.373  0.00  0.00    -0.297 N 
ATOM     56  H   ILE A   3      14.271  31.946  18.649  0.00  0.00    +0.150 HD
ATOM     57  O   MET A   2      17.335  32.473  17.982  0.00  0.00    -0.273 OA
BRANCH  54  58
ATOM     58  CA  MET A   2      15.760  34.069  18.595  0.00  0.00    +0.149 C 
BRANCH  58  61
ATOM     59  C   LYS A   1      16.383  34.889  20.815  0.00  0.00    +0.238 C 
ATOM     60  O   LYS A   1      15.237  34.808  21.265  0.00  0.00    -0.274 OA
ATOM     61  N   MET A   2      16.665  34.621  19.577  0.00  0.00    -0.297 N 
ATOM     62  H   MET A   2      17.635  34.823  19.261  0.00  0.00    +0.150 HD
BRANCH  59  63
ATOM     63  CA  LYS A   1      17.550  35.312  21.695  0.00  0.00    +0.145 C 
BRANCH  63  64
ATOM     64  N   LYS A   1      17.082  36.303  22.635  0.00  0.00    -0.238 NA
ATOM     65  H   LYS A   1      16.085  36.298  22.930  0.00  0.00    +0.142 HD
ENDBRANCH  63  64
BRANCH  63  66
ATOM     66  CB  LYS A   1      18.134  34.076  22.391  0.00  0.00    +0.026 C 
BRANCH  66  67
ATOM     67  CG  LYS A   1      18.859  33.156  21.403  0.00  0.00    -0.000 C 
BRANCH  67  68
ATOM     68  CD  LYS A   1      19.725  32.102  21.999  0.00  0.00    -0.024 C 
BRANCH  68  69
ATOM     69  CE  LYS A   1      20.650  31.469  20.979  0.00  0.00    -0.086 C 
BRANCH  69  70
ATOM     70  NZ  LYS A   1      21.405  30.295  21.507  0.00  0.00    +0.380 N 
ATOM     71  HZ1 LYS A   1      21.989  30.594  22.314  0.00  0.00    -0.089 HD
ATOM     72  HZ2 LYS A   1      20.734  29.563  21.816  0.00  0.00    -0.089 HD
ATOM     73  HZ3 LYS A   1      22.017  29.912  20.758  0.00  0.00    -0.089 HD
ENDBRANCH  69  70
ENDBRANCH  68  69
ENDBRANCH  67  68
ENDBRANCH  66  67
ENDBRANCH  63  66
ENDBRANCH  59  63
ENDBRANCH  58  61
BRANCH  58  74
ATOM     74  CB  MET A   2      15.895  34.882  17.274  0.00  0.00    +0.041 C 
BRANCH  74  75
ATOM     75  CG  MET A   2      15.295  36.259  17.513  0.00  0.00    +0.060 C 
BRANCH  75  76
ATOM     76  SD  MET A   2      13.574  36.369  17.171  0.00  0.00    -0.139 S 
ATOM     77  CE  MET A   2      13.035  34.871  16.436  0.00  0.00    +0.069 C 
ENDBRANCH  75  76
ENDBRANCH  74  75
ENDBRANCH  58  74
ENDBRANCH  54  58
ENDBRANCH  53  55
BRANCH  53  78
ATOM     78  CB  ILE A   3      15.568  29.431  19.343  0.00  0.00    +0.027 C 
ATOM     79  CG2 ILE A   3      16.694  29.862  20.281  0.00  0.00    +0.002 C 
BRANCH  78  80
ATOM     80  CG1 ILE A   3      14.239  29.352  20.049  0.00  0.00    +0.002 C 
ATOM     81  CD1 ILE A   3      14.231  28.473  21.265  0.00  0.00    +0.000 C 
ENDBRANCH  78  80
ENDBRANCH  53  78
ENDBRANCH  49  53
ENDBRANCH  48  51
ENDBRANCH  44  48
ENDBRANCH  43  46
ENDBRANCH   1  43
TORSDOF 36
REMARK  Name = ../refined-set-2016/4kb9/4kb9_pocket.pdb
REMARK  229 active torsions:
REMARK  status: ('A' for Active; 'I' for Inactive)
REMARK    1  A    between atoms: _1  and  _3
REMARK    2  A    between atoms: _3  and  _4
REMARK    3  A    between atoms: _3  and  _6
REMARK    4  A    between atoms: _6  and  _7
REMARK    5  A    between atoms: _7  and  _8
REMARK    6  A    between atoms: _8  and  _9
REMARK    7  A    between atoms: _18  and  _20
REMARK    8  A    between atoms: _20  and  _21
REMARK    9  A    between atoms: _20  and  _23
REMARK   10  A    between atoms: _23  and  _24
REMARK   11  A    between atoms: _27  and  _29
REMARK   12  A    between atoms: _29  and  _30
REMARK   13  A    between atoms: _29  and  _32
REMARK   14  A    between atoms: _32  and  _33
REMARK   15  A    between atoms: _36  and  _38
REMARK   16  A    between atoms: _38  and  _39
REMARK   17  A    between atoms: _38  and  _41
REMARK   18  A    between atoms: _41  and  _42
REMARK   19  A    between atoms: _45  and  _47
REMARK   20  A    between atoms: _47  and  _48
REMARK   21  A    between atoms: _47  and  _50
REMARK   22  A    between atoms: _50  and  _51
REMARK   23  A    between atoms: _54  and  _56
REMARK   24  A    between atoms: _56  and  _57
REMARK   25  A    between atoms: _59  and  _61
REMARK   26  A    between atoms: _61  and  _62
REMARK   27  A    between atoms: _65  and  _67
REMARK   28  A    between atoms: _67  and  _68
REMARK   29  A    between atoms: _67  and  _70
REMARK   30  A    between atoms: _70  and  _71
REMARK   31  A    between atoms: _74  and  _76
REMARK   32  A    between atoms: _76  and  _77
REMARK   33  A    between atoms: _76  and  _79
REMARK   34  A    between atoms: _79  and  _80
REMARK   35  A    between atoms: _83  and  _85
REMARK   36  A    between atoms: _85  and  _86
REMARK   37  A    between atoms: _85  and  _88
REMARK   38  A    between atoms: _88  and  _89
REMARK   39  A    between atoms: _92  and  _94
REMARK   40  A    between atoms: _94  and  _95
REMARK   41  A    between atoms: _94  and  _97
REMARK   42  A    between atoms: _100  and  _102
REMARK   43  A    between atoms: _102  and  _103
REMARK   44  A    between atoms: _102  and  _105
REMARK   45  A    between atoms: _105  and  _106
REMARK   46  A    between atoms: _106  and  _107
REMARK   47  A    between atoms: _107  and  _108
REMARK   48  A    between atoms: _108  and  _109
REMARK   49  A    between atoms: _113  and  _115
REMARK   50  A    between atoms: _115  and  _116
REMARK   51  A    between atoms: _115  and  _118
REMARK   52  A    between atoms: _118  and  _119
REMARK   53  A    between atoms: _119  and  _120
REMARK   54  A    between atoms: _122  and  _124
REMARK   55  A    between atoms: _124  and  _125
REMARK   56  A    between atoms: _124  and  _127
REMARK   57  A    between atoms: _127  and  _128
REMARK   58  A    between atoms: _131  and  _133
REMARK   59  A    between atoms: _133  and  _134
REMARK   60  A    between atoms: _136  and  _138
REMARK   61  A    between atoms: _138  and  _139
REMARK   62  A    between atoms: _141  and  _143
REMARK   63  A    between atoms: _143  and  _144
REMARK   64  A    between atoms: _143  and  _146
REMARK   65  A    between atoms: _146  and  _147
REMARK   66  A    between atoms: _150  and  _152
REMARK   67  A    between atoms: _152  and  _153
REMARK   68  A    between atoms: _155  and  _157
REMARK   69  A    between atoms: _157  and  _158
REMARK   70  A    between atoms: _160  and  _162
REMARK   71  A    between atoms: _162  and  _163
REMARK   72  A    between atoms: _162  and  _165
REMARK   73  A    between atoms: _165  and  _166
REMARK   74  A    between atoms: _172  and  _174
REMARK   75  A    between atoms: _174  and  _175
REMARK   76  A    between atoms: _174  and  _177
REMARK   77  A    between atoms: _177  and  _178
REMARK   78  A    between atoms: _181  and  _183
REMARK   79  A    between atoms: _183  and  _184
REMARK   80  A    between atoms: _183  and  _186
REMARK   81  A    between atoms: _189  and  _191
REMARK   82  A    between atoms: _191  and  _192
REMARK   83  A    between atoms: _191  and  _194
REMARK   84  A    between atoms: _194  and  _195
REMARK   85  A    between atoms: _198  and  _200
REMARK   86  A    between atoms: _200  and  _201
REMARK   87  A    between atoms: _200  and  _203
REMARK   88  A    between atoms: _203  and  _204
REMARK   89  A    between atoms: _208  and  _209
REMARK   90  A    between atoms: _214  and  _216
REMARK   91  A    between atoms: _216  and  _217
REMARK   92  A    between atoms: _216  and  _219
REMARK   93  A    between atoms: _222  and  _224
REMARK   94  A    between atoms: _224  and  _225
REMARK   95  A    between atoms: _224  and  _227
REMARK   96  A    between atoms: _227  and  _228
REMARK   97  A    between atoms: _233  and  _235
REMARK   98  A    between atoms: _235  and  _236
REMARK   99  A    between atoms: _235  and  _238
REMARK  100  A    between atoms: _238  and  _239
REMARK  101  A    between atoms: _242  and  _244
REMARK  102  A    between atoms: _244  and  _245
REMARK  103  A    between atoms: _247  and  _249
REMARK  104  A    between atoms: _249  and  _250
REMARK  105  A    between atoms: _249  and  _252
REMARK  106  A    between atoms: _252  and  _253
REMARK  107  A    between atoms: _253  and  _254
REMARK  108  A    between atoms: _254  and  _255
REMARK  109  A    between atoms: _264  and  _266
REMARK  110  A    between atoms: _266  and  _267
REMARK  111  A    between atoms: _266  and  _269
REMARK  112  A    between atoms: _269  and  _270
REMARK  113  A    between atoms: _275  and  _277
REMARK  114  A    between atoms: _277  and  _278
REMARK  115  A    between atoms: _277  and  _280
REMARK  116  A    between atoms: _280  and  _281
REMARK  117  A    between atoms: _281  and  _282
REMARK  118  A    between atoms: _282  and  _283
REMARK  119  A    between atoms: _292  and  _294
REMARK  120  A    between atoms: _294  and  _295
REMARK  121  A    between atoms: _294  and  _297
REMARK  122  A    between atoms: _297  and  _298
REMARK  123  A    between atoms: _301  and  _303
REMARK  124  A    between atoms: _303  and  _304
REMARK  125  A    between atoms: _303  and  _306
REMARK  126  A    between atoms: _306  and  _307
REMARK  127  A    between atoms: _310  and  _312
REMARK  128  A    between atoms: _312  and  _313
REMARK  129  A    between atoms: _312  and  _315
REMARK  130  A    between atoms: _315  and  _316
REMARK  131  A    between atoms: _319  and  _321
REMARK  132  A    between atoms: _321  and  _322
REMARK  133  A    between atoms: _321  and  _324
REMARK  134  A    between atoms: _324  and  _325
REMARK  135  A    between atoms: _328  and  _330
REMARK  136  A    between atoms: _330  and  _331
REMARK  137  A    between atoms: _333  and  _335
REMARK  138  A    between atoms: _335  and  _336
REMARK  139  A    between atoms: _339  and  _341
REMARK  140  A    between atoms: _341  and  _342
REMARK  141  A    between atoms: _341  and  _344
REMARK  142  A    between atoms: _344  and  _345
REMARK  143  A    between atoms: _348  and  _350
REMARK  144  A    between atoms: _350  and  _351
REMARK  145  A    between atoms: _350  and  _353
REMARK  146  A    between atoms: _353  and  _354
REMARK  147  A    between atoms: _357  and  _359
REMARK  148  A    between atoms: _359  and  _360
REMARK  149  A    between atoms: _359  and  _362
REMARK  150  A    between atoms: _362  and  _363
REMARK  151  A    between atoms: _366  and  _368
REMARK  152  A    between atoms: _368  and  _369
REMARK  153  A    between atoms: _368  and  _371
REMARK  154  A    between atoms: _374  and  _376
REMARK  155  A    between atoms: _376  and  _377
REMARK  156  A    between atoms: _376  and  _379
REMARK  157  A    between atoms: _379  and  _380
REMARK  158  A    between atoms: _380  and  _381
REMARK  159  A    between atoms: _381  and  _382
REMARK  160  A    between atoms: _382  and  _383
REMARK  161  A    between atoms: _387  and  _389
REMARK  162  A    between atoms: _389  and  _390
REMARK  163  A    between atoms: _389  and  _392
REMARK  164  A    between atoms: _392  and  _393
REMARK  165  A    between atoms: _393  and  _394
REMARK  166  A    between atoms: _396  and  _398
REMARK  167  A    between atoms: _398  and  _399
REMARK  168  A    between atoms: _398  and  _401
REMARK  169  A    between atoms: _401  and  _402
REMARK  170  A    between atoms: _405  and  _407
REMARK  171  A    between atoms: _407  and  _408
REMARK  172  A    between atoms: _410  and  _412
REMARK  173  A    between atoms: _412  and  _413
REMARK  174  A    between atoms: _415  and  _417
REMARK  175  A    between atoms: _417  and  _418
REMARK  176  A    between atoms: _417  and  _420
REMARK  177  A    between atoms: _420  and  _421
REMARK  178  A    between atoms: _424  and  _426
REMARK  179  A    between atoms: _426  and  _427
REMARK  180  A    between atoms: _429  and  _431
REMARK  181  A    between atoms: _431  and  _432
REMARK  182  A    between atoms: _434  and  _436
REMARK  183  A    between atoms: _436  and  _437
REMARK  184  A    between atoms: _436  and  _439
REMARK  185  A    between atoms: _439  and  _440
REMARK  186  A    between atoms: _446  and  _448
REMARK  187  A    between atoms: _448  and  _449
REMARK  188  A    between atoms: _448  and  _451
REMARK  189  A    between atoms: _451  and  _452
REMARK  190  A    between atoms: _455  and  _457
REMARK  191  A    between atoms: _457  and  _458
REMARK  192  A    between atoms: _457  and  _460
REMARK  193  A    between atoms: _463  and  _465
REMARK  194  A    between atoms: _465  and  _466
REMARK  195  A    between atoms: _465  and  _468
REMARK  196  A    between atoms: _468  and  _469
REMARK  197  A    between atoms: _473  and  _474
REMARK  198  A    between atoms: _479  and  _481
REMARK  199  A    between atoms: _481  and  _482
REMARK  200  A    between atoms: _481  and  _484
REMARK  201  A    between atoms: _484  and  _485
REMARK  202  A    between atoms: _489  and  _490
REMARK  203  A    between atoms: _495  and  _497
REMARK  204  A    between atoms: _497  and  _498
REMARK  205  A    between atoms: _497  and  _500
REMARK  206  A    between atoms: _503  and  _505
REMARK  207  A    between atoms: _505  and  _506
REMARK  208  A    between atoms: _505  and  _508
REMARK  209  A    between atoms: _508  and  _509
REMARK  210  A    between atoms: _514  and  _516
REMARK  211  A    between atoms: _516  and  _517
REMARK  212  A    between atoms: _516  and  _519
REMARK  213  A    between atoms: _519  and  _520
REMARK  214  A    between atoms: _523  and  _525
REMARK  215  A    between atoms: _525  and  _526
REMARK  216  A    between atoms: _525  and  _528
REMARK  217  A    between atoms: _528  and  _529
REMARK  218  A    between atoms: _532  and  _534
REMARK  219  A    between atoms: _534  and  _535
REMARK  220  A    between atoms: _537  and  _539
REMARK  221  A    between atoms: _539  and  _540
REMARK  222  A    between atoms: _539  and  _542
REMARK  223  A    between atoms: _542  and  _543
REMARK  224  A    between atoms: _543  and  _544
REMARK  225  A    between atoms: _544  and  _545
REMARK  226  A    between atoms: _554  and  _556
REMARK  227  A    between atoms: _556  and  _557
REMARK  228  A    between atoms: _556  and  _559
REMARK  229  A    between atoms: _559  and  _560
REMARK                            x       y       z     vdW  Elec       q    Type
REMARK                         _______ _______ _______ _____ _____    ______ ____
ROOT
ATOM      1  CA  VAL A   1      12.880  33.675  24.086  0.00  0.00    +0.133 C 
ENDROOT
BRANCH   1   2
ATOM      2  CB  VAL A   1      13.444  32.231  24.052  0.00  0.00    +0.023 C 
ATOM      3  CG2 VAL A   1      14.854  32.199  23.503  0.00  0.00    +0.002 C 
ATOM      4  CG1 VAL A   1      12.525  31.297  23.283  0.00  0.00    +0.002 C 
ENDBRANCH   1   2
BRANCH   1   5
ATOM      5  N   VAL A   1      12.786  34.224  22.758  0.00  0.00    -0.239 NA
ATOM      6  H   VAL A   1      13.660  34.549  22.298  0.00  0.00    +0.142 HD
ENDBRANCH   1   5
BRANCH   1   7
ATOM      7  C   VAL A   1      13.711  34.619  24.965  0.00  0.00    +0.224 C 
ATOM      8  O   VAL A   1      14.404  35.511  24.438  0.00  0.00    -0.287 OA
ENDBRANCH   1   7
TORSDOF 3
REMARK  Name = ../refined-set-2016/4kb9/4kb9_pocket.pdb
REMARK  229 active torsions:
REMARK  status: ('A' for Active; 'I' for Inactive)
REMARK    1  A    between atoms: _1  and  _3
REMARK    2  A    between atoms: _3  and  _4
REMARK    3  A    between atoms: _3  and  _6
REMARK    4  A    between atoms: _6  and  _7
REMARK    5  A    between atoms: _7  and  _8
REMARK    6  A    between atoms: _8  and  _9
REMARK    7  A    between atoms: _18  and  _20
REMARK    8  A    between atoms: _20  and  _21
REMARK    9  A    between atoms: _20  and  _23
REMARK   10  A    between atoms: _23  and  _24
REMARK   11  A    between atoms: _27  and  _29
REMARK   12  A    between atoms: _29  and  _30
REMARK   13  A    between atoms: _29  and  _32
REMARK   14  A    between atoms: _32  and  _33
REMARK   15  A    between atoms: _36  and  _38
REMARK   16  A    between atoms: _38  and  _39
REMARK   17  A    between atoms: _38  and  _41
REMARK   18  A    between atoms: _41  and  _42
REMARK   19  A    between atoms: _45  and  _47
REMARK   20  A    between atoms: _47  and  _48
REMARK   21  A    between atoms: _47  and  _50
REMARK   22  A    between atoms: _50  and  _51
REMARK   23  A    between atoms: _54  and  _56
REMARK   24  A    between atoms: _56  and  _57
REMARK   25  A    between atoms: _59  and  _61
REMARK   26  A    between atoms: _61  and  _62
REMARK   27  A    between atoms: _65  and  _67
REMARK   28  A    between atoms: _67  and  _68
REMARK   29  A    between atoms: _67  and  _70
REMARK   30  A    between atoms: _70  and  _71
REMARK   31  A    between atoms: _74  and  _76
REMARK   32  A    between atoms: _76  and  _77
REMARK   33  A    between atoms: _76  and  _79
REMARK   34  A    between atoms: _79  and  _80
REMARK   35  A    between atoms: _83  and  _85
REMARK   36  A    between atoms: _85  and  _86
REMARK   37  A    between atoms: _85  and  _88
REMARK   38  A    between atoms: _88  and  _89
REMARK   39  A    between atoms: _92  and  _94
REMARK   40  A    between atoms: _94  and  _95
REMARK   41  A    between atoms: _94  and  _97
REMARK   42  A    between atoms: _100  and  _102
REMARK   43  A    between atoms: _102  and  _103
REMARK   44  A    between atoms: _102  and  _105
REMARK   45  A    between atoms: _105  and  _106
REMARK   46  A    between atoms: _106  and  _107
REMARK   47  A    between atoms: _107  and  _108
REMARK   48  A    between atoms: _108  and  _109
REMARK   49  A    between atoms: _113  and  _115
REMARK   50  A    between atoms: _115  and  _116
REMARK   51  A    between atoms: _115  and  _118
REMARK   52  A    between atoms: _118  and  _119
REMARK   53  A    between atoms: _119  and  _120
REMARK   54  A    between atoms: _122  and  _124
REMARK   55  A    between atoms: _124  and  _125
REMARK   56  A    between atoms: _124  and  _127
REMARK   57  A    between atoms: _127  and  _128
REMARK   58  A    between atoms: _131  and  _133
REMARK   59  A    between atoms: _133  and  _134
REMARK   60  A    between atoms: _136  and  _138
REMARK   61  A    between atoms: _138  and  _139
REMARK   62  A    between atoms: _141  and  _143
REMARK   63  A    between atoms: _143  and  _144
REMARK   64  A    between atoms: _143  and  _146
REMARK   65  A    between atoms: _146  and  _147
REMARK   66  A    between atoms: _150  and  _152
REMARK   67  A    between atoms: _152  and  _153
REMARK   68  A    between atoms: _155  and  _157
REMARK   69  A    between atoms: _157  and  _158
REMARK   70  A    between atoms: _160  and  _162
REMARK   71  A    between atoms: _162  and  _163
REMARK   72  A    between atoms: _162  and  _165
REMARK   73  A    between atoms: _165  and  _166
REMARK   74  A    between atoms: _172  and  _174
REMARK   75  A    between atoms: _174  and  _175
REMARK   76  A    between atoms: _174  and  _177
REMARK   77  A    between atoms: _177  and  _178
REMARK   78  A    between atoms: _181  and  _183
REMARK   79  A    between atoms: _183  and  _184
REMARK   80  A    between atoms: _183  and  _186
REMARK   81  A    between atoms: _189  and  _191
REMARK   82  A    between atoms: _191  and  _192
REMARK   83  A    between atoms: _191  and  _194
REMARK   84  A    between atoms: _194  and  _195
REMARK   85  A    between atoms: _198  and  _200
REMARK   86  A    between atoms: _200  and  _201
REMARK   87  A    between atoms: _200  and  _203
REMARK   88  A    between atoms: _203  and  _204
REMARK   89  A    between atoms: _208  and  _209
REMARK   90  A    between atoms: _214  and  _216
REMARK   91  A    between atoms: _216  and  _217
REMARK   92  A    between atoms: _216  and  _219
REMARK   93  A    between atoms: _222  and  _224
REMARK   94  A    between atoms: _224  and  _225
REMARK   95  A    between atoms: _224  and  _227
REMARK   96  A    between atoms: _227  and  _228
REMARK   97  A    between atoms: _233  and  _235
REMARK   98  A    between atoms: _235  and  _236
REMARK   99  A    between atoms: _235  and  _238
REMARK  100  A    between atoms: _238  and  _239
REMARK  101  A    between atoms: _242  and  _244
REMARK  102  A    between atoms: _244  and  _245
REMARK  103  A    between atoms: _247  and  _249
REMARK  104  A    between atoms: _249  and  _250
REMARK  105  A    between atoms: _249  and  _252
REMARK  106  A    between atoms: _252  and  _253
REMARK  107  A    between atoms: _253  and  _254
REMARK  108  A    between atoms: _254  and  _255
REMARK  109  A    between atoms: _264  and  _266
REMARK  110  A    between atoms: _266  and  _267
REMARK  111  A    between atoms: _266  and  _269
REMARK  112  A    between atoms: _269  and  _270
REMARK  113  A    between atoms: _275  and  _277
REMARK  114  A    between atoms: _277  and  _278
REMARK  115  A    between atoms: _277  and  _280
REMARK  116  A    between atoms: _280  and  _281
REMARK  117  A    between atoms: _281  and  _282
REMARK  118  A    between atoms: _282  and  _283
REMARK  119  A    between atoms: _292  and  _294
REMARK  120  A    between atoms: _294  and  _295
REMARK  121  A    between atoms: _294  and  _297
REMARK  122  A    between atoms: _297  and  _298
REMARK  123  A    between atoms: _301  and  _303
REMARK  124  A    between atoms: _303  and  _304
REMARK  125  A    between atoms: _303  and  _306
REMARK  126  A    between atoms: _306  and  _307
REMARK  127  A    between atoms: _310  and  _312
REMARK  128  A    between atoms: _312  and  _313
REMARK  129  A    between atoms: _312  and  _315
REMARK  130  A    between atoms: _315  and  _316
REMARK  131  A    between atoms: _319  and  _321
REMARK  132  A    between atoms: _321  and  _322
REMARK  133  A    between atoms: _321  and  _324
REMARK  134  A    between atoms: _324  and  _325
REMARK  135  A    between atoms: _328  and  _330
REMARK  136  A    between atoms: _330  and  _331
REMARK  137  A    between atoms: _333  and  _335
REMARK  138  A    between atoms: _335  and  _336
REMARK  139  A    between atoms: _339  and  _341
REMARK  140  A    between atoms: _341  and  _342
REMARK  141  A    between atoms: _341  and  _344
REMARK  142  A    between atoms: _344  and  _345
REMARK  143  A    between atoms: _348  and  _350
REMARK  144  A    between atoms: _350  and  _351
REMARK  145  A    between atoms: _350  and  _353
REMARK  146  A    between atoms: _353  and  _354
REMARK  147  A    between atoms: _357  and  _359
REMARK  148  A    between atoms: _359  and  _360
REMARK  149  A    between atoms: _359  and  _362
REMARK  150  A    between atoms: _362  and  _363
REMARK  151  A    between atoms: _366  and  _368
REMARK  152  A    between atoms: _368  and  _369
REMARK  153  A    between atoms: _368  and  _371
REMARK  154  A    between atoms: _374  and  _376
REMARK  155  A    between atoms: _376  and  _377
REMARK  156  A    between atoms: _376  and  _379
REMARK  157  A    between atoms: _379  and  _380
REMARK  158  A    between atoms: _380  and  _381
REMARK  159  A    between atoms: _381  and  _382
REMARK  160  A    between atoms: _382  and  _383
REMARK  161  A    between atoms: _387  and  _389
REMARK  162  A    between atoms: _389  and  _390
REMARK  163  A    between atoms: _389  and  _392
REMARK  164  A    between atoms: _392  and  _393
REMARK  165  A    between atoms: _393  and  _394
REMARK  166  A    between atoms: _396  and  _398
REMARK  167  A    between atoms: _398  and  _399
REMARK  168  A    between atoms: _398  and  _401
REMARK  169  A    between atoms: _401  and  _402
REMARK  170  A    between atoms: _405  and  _407
REMARK  171  A    between atoms: _407  and  _408
REMARK  172  A    between atoms: _410  and  _412
REMARK  173  A    between atoms: _412  and  _413
REMARK  174  A    between atoms: _415  and  _417
REMARK  175  A    between atoms: _417  and  _418
REMARK  176  A    between atoms: _417  and  _420
REMARK  177  A    between atoms: _420  and  _421
REMARK  178  A    between atoms: _424  and  _426
REMARK  179  A    between atoms: _426  and  _427
REMARK  180  A    between atoms: _429  and  _431
REMARK  181  A    between atoms: _431  and  _432
REMARK  182  A    between atoms: _434  and  _436
REMARK  183  A    between atoms: _436  and  _437
REMARK  184  A    between atoms: _436  and  _439
REMARK  185  A    between atoms: _439  and  _440
REMARK  186  A    between atoms: _446  and  _448
REMARK  187  A    between atoms: _448  and  _449
REMARK  188  A    between atoms: _448  and  _451
REMARK  189  A    between atoms: _451  and  _452
REMARK  190  A    between atoms: _455  and  _457
REMARK  191  A    between atoms: _457  and  _458
REMARK  192  A    between atoms: _457  and  _460
REMARK  193  A    between atoms: _463  and  _465
REMARK  194  A    between atoms: _465  and  _466
REMARK  195  A    between atoms: _465  and  _468
REMARK  196  A    between atoms: _468  and  _469
REMARK  197  A    between atoms: _473  and  _474
REMARK  198  A    between atoms: _479  and  _481
REMARK  199  A    between atoms: _481  and  _482
REMARK  200  A    between atoms: _481  and  _484
REMARK  201  A    between atoms: _484  and  _485
REMARK  202  A    between atoms: _489  and  _490
REMARK  203  A    between atoms: _495  and  _497
REMARK  204  A    between atoms: _497  and  _498
REMARK  205  A    between atoms: _497  and  _500
REMARK  206  A    between atoms: _503  and  _505
REMARK  207  A    between atoms: _505  and  _506
REMARK  208  A    between atoms: _505  and  _508
REMARK  209  A    between atoms: _508  and  _509
REMARK  210  A    between atoms: _514  and  _516
REMARK  211  A    between atoms: _516  and  _517
REMARK  212  A    between atoms: _516  and  _519
REMARK  213  A    between atoms: _519  and  _520
REMARK  214  A    between atoms: _523  and  _525
REMARK  215  A    between atoms: _525  and  _526
REMARK  216  A    between atoms: _525  and  _528
REMARK  217  A    between atoms: _528  and  _529
REMARK  218  A    between atoms: _532  and  _534
REMARK  219  A    between atoms: _534  and  _535
REMARK  220  A    between atoms: _537  and  _539
REMARK  221  A    between atoms: _539  and  _540
REMARK  222  A    between atoms: _539  and  _542
REMARK  223  A    between atoms: _542  and  _543
REMARK  224  A    between atoms: _543  and  _544
REMARK  225  A    between atoms: _544  and  _545
REMARK  226  A    between atoms: _554  and  _556
REMARK  227  A    between atoms: _556  and  _557
REMARK  228  A    between atoms: _556  and  _559
REMARK  229  A    between atoms: _559  and  _560
REMARK                            x       y       z     vdW  Elec       q    Type
REMARK                         _______ _______ _______ _____ _____    ______ ____
ROOT
ATOM      1  CA  LEU A   1      15.841  29.862  27.527  0.00  0.00    +0.133 C 
ENDROOT
BRANCH   1   2
ATOM      2  N   LEU A   1      16.698  29.012  28.310  0.00  0.00    -0.239 NA
ATOM      3  H   LEU A   1      16.813  28.026  27.999  0.00  0.00    +0.142 HD
ENDBRANCH   1   2
BRANCH   1   4
ATOM      4  C   LEU A   1      14.397  29.649  27.966  0.00  0.00    +0.224 C 
ATOM      5  O   LEU A   1      13.974  28.519  28.168  0.00  0.00    -0.287 OA
ENDBRANCH   1   4
BRANCH   1   6
ATOM      6  CB  LEU A   1      16.000  29.581  26.035  0.00  0.00    +0.025 C 
BRANCH   6   7
ATOM      7  CG  LEU A   1      17.451  29.508  25.511  0.00  0.00    +0.002 C 
ATOM      8  CD2 LEU A   1      18.248  30.775  25.775  0.00  0.00    +0.000 C 
ATOM      9  CD1 LEU A   1      17.449  29.164  24.028  0.00  0.00    +0.000 C 
ENDBRANCH   6   7
ENDBRANCH   1   6
TORSDOF 4
REMARK  Name = ../refined-set-2016/4kb9/4kb9_pocket.pdb
REMARK  229 active torsions:
REMARK  status: ('A' for Active; 'I' for Inactive)
REMARK    1  A    between atoms: _1  and  _3
REMARK    2  A    between atoms: _3  and  _4
REMARK    3  A    between atoms: _3  and  _6
REMARK    4  A    between atoms: _6  and  _7
REMARK    5  A    between atoms: _7  and  _8
REMARK    6  A    between atoms: _8  and  _9
REMARK    7  A    between atoms: _18  and  _20
REMARK    8  A    between atoms: _20  and  _21
REMARK    9  A    between atoms: _20  and  _23
REMARK   10  A    between atoms: _23  and  _24
REMARK   11  A    between atoms: _27  and  _29
REMARK   12  A    between atoms: _29  and  _30
REMARK   13  A    between atoms: _29  and  _32
REMARK   14  A    between atoms: _32  and  _33
REMARK   15  A    between atoms: _36  and  _38
REMARK   16  A    between atoms: _38  and  _39
REMARK   17  A    between atoms: _38  and  _41
REMARK   18  A    between atoms: _41  and  _42
REMARK   19  A    between atoms: _45  and  _47
REMARK   20  A    between atoms: _47  and  _48
REMARK   21  A    between atoms: _47  and  _50
REMARK   22  A    between atoms: _50  and  _51
REMARK   23  A    between atoms: _54  and  _56
REMARK   24  A    between atoms: _56  and  _57
REMARK   25  A    between atoms: _59  and  _61
REMARK   26  A    between atoms: _61  and  _62
REMARK   27  A    between atoms: _65  and  _67
REMARK   28  A    between atoms: _67  and  _68
REMARK   29  A    between atoms: _67  and  _70
REMARK   30  A    between atoms: _70  and  _71
REMARK   31  A    between atoms: _74  and  _76
REMARK   32  A    between atoms: _76  and  _77
REMARK   33  A    between atoms: _76  and  _79
REMARK   34  A    between atoms: _79  and  _80
REMARK   35  A    between atoms: _83  and  _85
REMARK   36  A    between atoms: _85  and  _86
REMARK   37  A    between atoms: _85  and  _88
REMARK   38  A    between atoms: _88  and  _89
REMARK   39  A    between atoms: _92  and  _94
REMARK   40  A    between atoms: _94  and  _95
REMARK   41  A    between atoms: _94  and  _97
REMARK   42  A    between atoms: _100  and  _102
REMARK   43  A    between atoms: _102  and  _103
REMARK   44  A    between atoms: _102  and  _105
REMARK   45  A    between atoms: _105  and  _106
REMARK   46  A    between atoms: _106  and  _107
REMARK   47  A    between atoms: _107  and  _108
REMARK   48  A    between atoms: _108  and  _109
REMARK   49  A    between atoms: _113  and  _115
REMARK   50  A    between atoms: _115  and  _116
REMARK   51  A    between atoms: _115  and  _118
REMARK   52  A    between atoms: _118  and  _119
REMARK   53  A    between atoms: _119  and  _120
REMARK   54  A    between atoms: _122  and  _124
REMARK   55  A    between atoms: _124  and  _125
REMARK   56  A    between atoms: _124  and  _127
REMARK   57  A    between atoms: _127  and  _128
REMARK   58  A    between atoms: _131  and  _133
REMARK   59  A    between atoms: _133  and  _134
REMARK   60  A    between atoms: _136  and  _138
REMARK   61  A    between atoms: _138  and  _139
REMARK   62  A    between atoms: _141  and  _143
REMARK   63  A    between atoms: _143  and  _144
REMARK   64  A    between atoms: _143  and  _146
REMARK   65  A    between atoms: _146  and  _147
REMARK   66  A    between atoms: _150  and  _152
REMARK   67  A    between atoms: _152  and  _153
REMARK   68  A    between atoms: _155  and  _157
REMARK   69  A    between atoms: _157  and  _158
REMARK   70  A    between atoms: _160  and  _162
REMARK   71  A    between atoms: _162  and  _163
REMARK   72  A    between atoms: _162  and  _165
REMARK   73  A    between atoms: _165  and  _166
REMARK   74  A    between atoms: _172  and  _174
REMARK   75  A    between atoms: _174  and  _175
REMARK   76  A    between atoms: _174  and  _177
REMARK   77  A    between atoms: _177  and  _178
REMARK   78  A    between atoms: _181  and  _183
REMARK   79  A    between atoms: _183  and  _184
REMARK   80  A    between atoms: _183  and  _186
REMARK   81  A    between atoms: _189  and  _191
REMARK   82  A    between atoms: _191  and  _192
REMARK   83  A    between atoms: _191  and  _194
REMARK   84  A    between atoms: _194  and  _195
REMARK   85  A    between atoms: _198  and  _200
REMARK   86  A    between atoms: _200  and  _201
REMARK   87  A    between atoms: _200  and  _203
REMARK   88  A    between atoms: _203  and  _204
REMARK   89  A    between atoms: _208  and  _209
REMARK   90  A    between atoms: _214  and  _216
REMARK   91  A    between atoms: _216  and  _217
REMARK   92  A    between atoms: _216  and  _219
REMARK   93  A    between atoms: _222  and  _224
REMARK   94  A    between atoms: _224  and  _225
REMARK   95  A    between atoms: _224  and  _227
REMARK   96  A    between atoms: _227  and  _228
REMARK   97  A    between atoms: _233  and  _235
REMARK   98  A    between atoms: _235  and  _236
REMARK   99  A    between atoms: _235  and  _238
REMARK  100  A    between atoms: _238  and  _239
REMARK  101  A    between atoms: _242  and  _244
REMARK  102  A    between atoms: _244  and  _245
REMARK  103  A    between atoms: _247  and  _249
REMARK  104  A    between atoms: _249  and  _250
REMARK  105  A    between atoms: _249  and  _252
REMARK  106  A    between atoms: _252  and  _253
REMARK  107  A    between atoms: _253  and  _254
REMARK  108  A    between atoms: _254  and  _255
REMARK  109  A    between atoms: _264  and  _266
REMARK  110  A    between atoms: _266  and  _267
REMARK  111  A    between atoms: _266  and  _269
REMARK  112  A    between atoms: _269  and  _270
REMARK  113  A    between atoms: _275  and  _277
REMARK  114  A    between atoms: _277  and  _278
REMARK  115  A    between atoms: _277  and  _280
REMARK  116  A    between atoms: _280  and  _281
REMARK  117  A    between atoms: _281  and  _282
REMARK  118  A    between atoms: _282  and  _283
REMARK  119  A    between atoms: _292  and  _294
REMARK  120  A    between atoms: _294  and  _295
REMARK  121  A    between atoms: _294  and  _297
REMARK  122  A    between atoms: _297  and  _298
REMARK  123  A    between atoms: _301  and  _303
REMARK  124  A    between atoms: _303  and  _304
REMARK  125  A    between atoms: _303  and  _306
REMARK  126  A    between atoms: _306  and  _307
REMARK  127  A    between atoms: _310  and  _312
REMARK  128  A    between atoms: _312  and  _313
REMARK  129  A    between atoms: _312  and  _315
REMARK  130  A    between atoms: _315  and  _316
REMARK  131  A    between atoms: _319  and  _321
REMARK  132  A    between atoms: _321  and  _322
REMARK  133  A    between atoms: _321  and  _324
REMARK  134  A    between atoms: _324  and  _325
REMARK  135  A    between atoms: _328  and  _330
REMARK  136  A    between atoms: _330  and  _331
REMARK  137  A    between atoms: _333  and  _335
REMARK  138  A    between atoms: _335  and  _336
REMARK  139  A    between atoms: _339  and  _341
REMARK  140  A    between atoms: _341  and  _342
REMARK  141  A    between atoms: _341  and  _344
REMARK  142  A    between atoms: _344  and  _345
REMARK  143  A    between atoms: _348  and  _350
REMARK  144  A    between atoms: _350  and  _351
REMARK  145  A    between atoms: _350  and  _353
REMARK  146  A    between atoms: _353  and  _354
REMARK  147  A    between atoms: _357  and  _359
REMARK  148  A    between atoms: _359  and  _360
REMARK  149  A    between atoms: _359  and  _362
REMARK  150  A    between atoms: _362  and  _363
REMARK  151  A    between atoms: _366  and  _368
REMARK  152  A    between atoms: _368  and  _369
REMARK  153  A    between atoms: _368  and  _371
REMARK  154  A    between atoms: _374  and  _376
REMARK  155  A    between atoms: _376  and  _377
REMARK  156  A    between atoms: _376  and  _379
REMARK  157  A    between atoms: _379  and  _380
REMARK  158  A    between atoms: _380  and  _381
REMARK  159  A    between atoms: _381  and  _382
REMARK  160  A    between atoms: _382  and  _383
REMARK  161  A    between atoms: _387  and  _389
REMARK  162  A    between atoms: _389  and  _390
REMARK  163  A    between atoms: _389  and  _392
REMARK  164  A    between atoms: _392  and  _393
REMARK  165  A    between atoms: _393  and  _394
REMARK  166  A    between atoms: _396  and  _398
REMARK  167  A    between atoms: _398  and  _399
REMARK  168  A    between atoms: _398  and  _401
REMARK  169  A    between atoms: _401  and  _402
REMARK  170  A    between atoms: _405  and  _407
REMARK  171  A    between atoms: _407  and  _408
REMARK  172  A    between atoms: _410  and  _412
REMARK  173  A    between atoms: _412  and  _413
REMARK  174  A    between atoms: _415  and  _417
REMARK  175  A    between atoms: _417  and  _418
REMARK  176  A    between atoms: _417  and  _420
REMARK  177  A    between atoms: _420  and  _421
REMARK  178  A    between atoms: _424  and  _426
REMARK  179  A    between atoms: _426  and  _427
REMARK  180  A    between atoms: _429  and  _431
REMARK  181  A    between atoms: _431  and  _432
REMARK  182  A    between atoms: _434  and  _436
REMARK  183  A    between atoms: _436  and  _437
REMARK  184  A    between atoms: _436  and  _439
REMARK  185  A    between atoms: _439  and  _440
REMARK  186  A    between atoms: _446  and  _448
REMARK  187  A    between atoms: _448  and  _449
REMARK  188  A    between atoms: _448  and  _451
REMARK  189  A    between atoms: _451  and  _452
REMARK  190  A    between atoms: _455  and  _457
REMARK  191  A    between atoms: _457  and  _458
REMARK  192  A    between atoms: _457  and  _460
REMARK  193  A    between atoms: _463  and  _465
REMARK  194  A    between atoms: _465  and  _466
REMARK  195  A    between atoms: _465  and  _468
REMARK  196  A    between atoms: _468  and  _469
REMARK  197  A    between atoms: _473  and  _474
REMARK  198  A    between atoms: _479  and  _481
REMARK  199  A    between atoms: _481  and  _482
REMARK  200  A    between atoms: _481  and  _484
REMARK  201  A    between atoms: _484  and  _485
REMARK  202  A    between atoms: _489  and  _490
REMARK  203  A    between atoms: _495  and  _497
REMARK  204  A    between atoms: _497  and  _498
REMARK  205  A    between atoms: _497  and  _500
REMARK  206  A    between atoms: _503  and  _505
REMARK  207  A    between atoms: _505  and  _506
REMARK  208  A    between atoms: _505  and  _508
REMARK  209  A    between atoms: _508  and  _509
REMARK  210  A    between atoms: _514  and  _516
REMARK  211  A    between atoms: _516  and  _517
REMARK  212  A    between atoms: _516  and  _519
REMARK  213  A    between atoms: _519  and  _520
REMARK  214  A    between atoms: _523  and  _525
REMARK  215  A    between atoms: _525  and  _526
REMARK  216  A    between atoms: _525  and  _528
REMARK  217  A    between atoms: _528  and  _529
REMARK  218  A    between atoms: _532  and  _534
REMARK  219  A    between atoms: _534  and  _535
REMARK  220  A    between atoms: _537  and  _539
REMARK  221  A    between atoms: _539  and  _540
REMARK  222  A    between atoms: _539  and  _542
REMARK  223  A    between atoms: _542  and  _543
REMARK  224  A    between atoms: _543  and  _544
REMARK  225  A    between atoms: _544  and  _545
REMARK  226  A    between atoms: _554  and  _556
REMARK  227  A    between atoms: _556  and  _557
REMARK  228  A    between atoms: _556  and  _559
REMARK  229  A    between atoms: _559  and  _560
REMARK                            x       y       z     vdW  Elec       q    Type
REMARK                         _______ _______ _______ _____ _____    ______ ____
ROOT
ATOM      1  CA  VAL A   3       7.317  21.162  25.776  0.00  0.00    +0.149 C 
ENDROOT
BRANCH   1   4
ATOM      2  C   PRO A   2       5.634  22.431  24.491  0.00  0.00    +0.241 C 
ATOM      3  O   PRO A   2       4.688  21.863  24.997  0.00  0.00    -0.273 OA
ATOM      4  N   VAL A   3       6.878  22.150  24.805  0.00  0.00    -0.297 N 
ATOM      5  H   VAL A   3       7.620  22.686  24.311  0.00  0.00    +0.150 HD
BRANCH   2   9
ATOM      6  C   THR A   1       6.790  25.281  23.975  0.00  0.00    +0.244 C 
ATOM      7  O   THR A   1       6.171  25.373  25.030  0.00  0.00    -0.273 OA
ATOM      8  N   PRO A   2       6.440  24.357  23.074  0.00  0.00    -0.272 N 
ATOM      9  CA  PRO A   2       5.375  23.433  23.395  0.00  0.00    +0.152 C 
ATOM     10  CB  PRO A   2       5.235  22.587  22.139  0.00  0.00    +0.031 C 
ATOM     11  CG  PRO A   2       5.891  23.373  21.087  0.00  0.00    +0.024 C 
ATOM     12  CD  PRO A   2       6.978  24.184  21.706  0.00  0.00    +0.094 C 
BRANCH   6  13
ATOM     13  CA  THR A   1       7.929  26.224  23.674  0.00  0.00    +0.172 C 
BRANCH  13  14
ATOM     14  CB  THR A   1       9.249  25.717  24.257  0.00  0.00    +0.135 C 
ATOM     15  CG2 THR A   1       9.318  25.685  25.752  0.00  0.00    +0.034 C 
BRANCH  14  16
ATOM     16  OG1 THR A   1       9.432  24.359  23.756  0.00  0.00    -0.383 OA
ATOM     17  HG1 THR A   1       8.675  23.794  24.052  0.00  0.00    +0.210 HD
ENDBRANCH  14  16
ENDBRANCH  13  14
BRANCH  13  18
ATOM     18  N   THR A   1       7.619  27.545  24.209  0.00  0.00    -0.236 NA
ATOM     19  H   THR A   1       7.972  27.826  25.146  0.00  0.00    +0.142 HD
ENDBRANCH  13  18
ENDBRANCH   6  13
ENDBRANCH   2   9
ENDBRANCH   1   4
BRANCH   1  20
ATOM     20  C   VAL A   3       8.649  21.659  26.327  0.00  0.00    +0.241 C 
ATOM     21  N   ASN A   4       8.948  21.306  27.565  0.00  0.00    -0.297 N 
ATOM     22  H   ASN A   4       8.255  20.774  28.130  0.00  0.00    +0.150 HD
ATOM     23  O   VAL A   3       9.391  22.349  25.588  0.00  0.00    -0.273 OA
BRANCH  21  24
ATOM     24  CA  ASN A   4      10.239  21.654  28.148  0.00  0.00    +0.158 C 
BRANCH  24  25
ATOM     25  C   ASN A   4      11.283  20.740  27.505  0.00  0.00    +0.241 C 
ATOM     26  O   ASN A   4      11.073  19.531  27.469  0.00  0.00    -0.273 OA
ATOM     27  N   ILE A   5      12.352  21.346  26.981  0.00  0.00    -0.298 N 
ATOM     28  H   ILE A   5      12.451  22.373  27.110  0.00  0.00    +0.150 HD
BRANCH  27  29
ATOM     29  CA  ILE A   5      13.381  20.642  26.241  0.00  0.00    +0.137 C 
BRANCH  29  30
ATOM     30  CB  ILE A   5      13.426  21.254  24.839  0.00  0.00    +0.026 C 
ATOM     31  CG2 ILE A   5      14.673  20.908  24.070  0.00  0.00    +0.002 C 
BRANCH  30  32
ATOM     32  CG1 ILE A   5      12.177  20.899  24.015  0.00  0.00    +0.002 C 
ATOM     33  CD1 ILE A   5      11.934  21.928  22.958  0.00  0.00    +0.000 C 
ENDBRANCH  30  32
ENDBRANCH  29  30
BRANCH  29  34
ATOM     34  C   ILE A   5      14.739  20.795  26.893  0.00  0.00    +0.227 C 
ATOM     35  O   ILE A   5      15.139  21.958  27.118  0.00  0.00    -0.286 OA
ENDBRANCH  29  34
ENDBRANCH  27  29
ENDBRANCH  24  25
BRANCH  24  36
ATOM     36  CB  ASN A   4      10.238  21.483  29.640  0.00  0.00    +0.114 C 
BRANCH  36  37
ATOM     37  CG  ASN A   4       9.286  22.378  30.365  0.00  0.00    +0.222 C 
ATOM     38  ND2 ASN A   4       8.668  21.841  31.386  0.00  0.00    -0.329 N 
ATOM     39 HD21 ASN A   4       7.961  22.391  31.914  0.00  0.00    +0.145 HD
ATOM     40 HD22 ASN A   4       8.884  20.864  31.669  0.00  0.00    +0.145 HD
ATOM     41  OD1 ASN A   4       9.083  23.534  29.969  0.00  0.00    -0.275 OA
ENDBRANCH  36  37
ENDBRANCH  24  36
ENDBRANCH  21  24
ENDBRANCH   1  20
BRANCH   1  42
ATOM     42  CB  VAL A   3       7.491  19.773  25.158  0.00  0.00    +0.027 C 
ATOM     43  CG2 VAL A   3       8.048  18.739  26.129  0.00  0.00    +0.002 C 
ATOM     44  CG1 VAL A   3       8.416  19.863  23.949  0.00  0.00    +0.002 C 
ENDBRANCH   1  42
TORSDOF 16
REMARK  Name = ../refined-set-2016/4kb9/4kb9_pocket.pdb
REMARK  229 active torsions:
REMARK  status: ('A' for Active; 'I' for Inactive)
REMARK    1  A    between atoms: _1  and  _3
REMARK    2  A    between atoms: _3  and  _4
REMARK    3  A    between atoms: _3  and  _6
REMARK    4  A    between atoms: _6  and  _7
REMARK    5  A    between atoms: _7  and  _8
REMARK    6  A    between atoms: _8  and  _9
REMARK    7  A    between atoms: _18  and  _20
REMARK    8  A    between atoms: _20  and  _21
REMARK    9  A    between atoms: _20  and  _23
REMARK   10  A    between atoms: _23  and  _24
REMARK   11  A    between atoms: _27  and  _29
REMARK   12  A    between atoms: _29  and  _30
REMARK   13  A    between atoms: _29  and  _32
REMARK   14  A    between atoms: _32  and  _33
REMARK   15  A    between atoms: _36  and  _38
REMARK   16  A    between atoms: _38  and  _39
REMARK   17  A    between atoms: _38  and  _41
REMARK   18  A    between atoms: _41  and  _42
REMARK   19  A    between atoms: _45  and  _47
REMARK   20  A    between atoms: _47  and  _48
REMARK   21  A    between atoms: _47  and  _50
REMARK   22  A    between atoms: _50  and  _51
REMARK   23  A    between atoms: _54  and  _56
REMARK   24  A    between atoms: _56  and  _57
REMARK   25  A    between atoms: _59  and  _61
REMARK   26  A    between atoms: _61  and  _62
REMARK   27  A    between atoms: _65  and  _67
REMARK   28  A    between atoms: _67  and  _68
REMARK   29  A    between atoms: _67  and  _70
REMARK   30  A    between atoms: _70  and  _71
REMARK   31  A    between atoms: _74  and  _76
REMARK   32  A    between atoms: _76  and  _77
REMARK   33  A    between atoms: _76  and  _79
REMARK   34  A    between atoms: _79  and  _80
REMARK   35  A    between atoms: _83  and  _85
REMARK   36  A    between atoms: _85  and  _86
REMARK   37  A    between atoms: _85  and  _88
REMARK   38  A    between atoms: _88  and  _89
REMARK   39  A    between atoms: _92  and  _94
REMARK   40  A    between atoms: _94  and  _95
REMARK   41  A    between atoms: _94  and  _97
REMARK   42  A    between atoms: _100  and  _102
REMARK   43  A    between atoms: _102  and  _103
REMARK   44  A    between atoms: _102  and  _105
REMARK   45  A    between atoms: _105  and  _106
REMARK   46  A    between atoms: _106  and  _107
REMARK   47  A    between atoms: _107  and  _108
REMARK   48  A    between atoms: _108  and  _109
REMARK   49  A    between atoms: _113  and  _115
REMARK   50  A    between atoms: _115  and  _116
REMARK   51  A    between atoms: _115  and  _118
REMARK   52  A    between atoms: _118  and  _119
REMARK   53  A    between atoms: _119  and  _120
REMARK   54  A    between atoms: _122  and  _124
REMARK   55  A    between atoms: _124  and  _125
REMARK   56  A    between atoms: _124  and  _127
REMARK   57  A    between atoms: _127  and  _128
REMARK   58  A    between atoms: _131  and  _133
REMARK   59  A    between atoms: _133  and  _134
REMARK   60  A    between atoms: _136  and  _138
REMARK   61  A    between atoms: _138  and  _139
REMARK   62  A    between atoms: _141  and  _143
REMARK   63  A    between atoms: _143  and  _144
REMARK   64  A    between atoms: _143  and  _146
REMARK   65  A    between atoms: _146  and  _147
REMARK   66  A    between atoms: _150  and  _152
REMARK   67  A    between atoms: _152  and  _153
REMARK   68  A    between atoms: _155  and  _157
REMARK   69  A    between atoms: _157  and  _158
REMARK   70  A    between atoms: _160  and  _162
REMARK   71  A    between atoms: _162  and  _163
REMARK   72  A    between atoms: _162  and  _165
REMARK   73  A    between atoms: _165  and  _166
REMARK   74  A    between atoms: _172  and  _174
REMARK   75  A    between atoms: _174  and  _175
REMARK   76  A    between atoms: _174  and  _177
REMARK   77  A    between atoms: _177  and  _178
REMARK   78  A    between atoms: _181  and  _183
REMARK   79  A    between atoms: _183  and  _184
REMARK   80  A    between atoms: _183  and  _186
REMARK   81  A    between atoms: _189  and  _191
REMARK   82  A    between atoms: _191  and  _192
REMARK   83  A    between atoms: _191  and  _194
REMARK   84  A    between atoms: _194  and  _195
REMARK   85  A    between atoms: _198  and  _200
REMARK   86  A    between atoms: _200  and  _201
REMARK   87  A    between atoms: _200  and  _203
REMARK   88  A    between atoms: _203  and  _204
REMARK   89  A    between atoms: _208  and  _209
REMARK   90  A    between atoms: _214  and  _216
REMARK   91  A    between atoms: _216  and  _217
REMARK   92  A    between atoms: _216  and  _219
REMARK   93  A    between atoms: _222  and  _224
REMARK   94  A    between atoms: _224  and  _225
REMARK   95  A    between atoms: _224  and  _227
REMARK   96  A    between atoms: _227  and  _228
REMARK   97  A    between atoms: _233  and  _235
REMARK   98  A    between atoms: _235  and  _236
REMARK   99  A    between atoms: _235  and  _238
REMARK  100  A    between atoms: _238  and  _239
REMARK  101  A    between atoms: _242  and  _244
REMARK  102  A    between atoms: _244  and  _245
REMARK  103  A    between atoms: _247  and  _249
REMARK  104  A    between atoms: _249  and  _250
REMARK  105  A    between atoms: _249  and  _252
REMARK  106  A    between atoms: _252  and  _253
REMARK  107  A    between atoms: _253  and  _254
REMARK  108  A    between atoms: _254  and  _255
REMARK  109  A    between atoms: _264  and  _266
REMARK  110  A    between atoms: _266  and  _267
REMARK  111  A    between atoms: _266  and  _269
REMARK  112  A    between atoms: _269  and  _270
REMARK  113  A    between atoms: _275  and  _277
REMARK  114  A    between atoms: _277  and  _278
REMARK  115  A    between atoms: _277  and  _280
REMARK  116  A    between atoms: _280  and  _281
REMARK  117  A    between atoms: _281  and  _282
REMARK  118  A    between atoms: _282  and  _283
REMARK  119  A    between atoms: _292  and  _294
REMARK  120  A    between atoms: _294  and  _295
REMARK  121  A    between atoms: _294  and  _297
REMARK  122  A    between atoms: _297  and  _298
REMARK  123  A    between atoms: _301  and  _303
REMARK  124  A    between atoms: _303  and  _304
REMARK  125  A    between atoms: _303  and  _306
REMARK  126  A    between atoms: _306  and  _307
REMARK  127  A    between atoms: _310  and  _312
REMARK  128  A    between atoms: _312  and  _313
REMARK  129  A    between atoms: _312  and  _315
REMARK  130  A    between atoms: _315  and  _316
REMARK  131  A    between atoms: _319  and  _321
REMARK  132  A    between atoms: _321  and  _322
REMARK  133  A    between atoms: _321  and  _324
REMARK  134  A    between atoms: _324  and  _325
REMARK  135  A    between atoms: _328  and  _330
REMARK  136  A    between atoms: _330  and  _331
REMARK  137  A    between atoms: _333  and  _335
REMARK  138  A    between atoms: _335  and  _336
REMARK  139  A    between atoms: _339  and  _341
REMARK  140  A    between atoms: _341  and  _342
REMARK  141  A    between atoms: _341  and  _344
REMARK  142  A    between atoms: _344  and  _345
REMARK  143  A    between atoms: _348  and  _350
REMARK  144  A    between atoms: _350  and  _351
REMARK  145  A    between atoms: _350  and  _353
REMARK  146  A    between atoms: _353  and  _354
REMARK  147  A    between atoms: _357  and  _359
REMARK  148  A    between atoms: _359  and  _360
REMARK  149  A    between atoms: _359  and  _362
REMARK  150  A    between atoms: _362  and  _363
REMARK  151  A    between atoms: _366  and  _368
REMARK  152  A    between atoms: _368  and  _369
REMARK  153  A    between atoms: _368  and  _371
REMARK  154  A    between atoms: _374  and  _376
REMARK  155  A    between atoms: _376  and  _377
REMARK  156  A    between atoms: _376  and  _379
REMARK  157  A    between atoms: _379  and  _380
REMARK  158  A    between atoms: _380  and  _381
REMARK  159  A    between atoms: _381  and  _382
REMARK  160  A    between atoms: _382  and  _383
REMARK  161  A    between atoms: _387  and  _389
REMARK  162  A    between atoms: _389  and  _390
REMARK  163  A    between atoms: _389  and  _392
REMARK  164  A    between atoms: _392  and  _393
REMARK  165  A    between atoms: _393  and  _394
REMARK  166  A    between atoms: _396  and  _398
REMARK  167  A    between atoms: _398  and  _399
REMARK  168  A    between atoms: _398  and  _401
REMARK  169  A    between atoms: _401  and  _402
REMARK  170  A    between atoms: _405  and  _407
REMARK  171  A    between atoms: _407  and  _408
REMARK  172  A    between atoms: _410  and  _412
REMARK  173  A    between atoms: _412  and  _413
REMARK  174  A    between atoms: _415  and  _417
REMARK  175  A    between atoms: _417  and  _418
REMARK  176  A    between atoms: _417  and  _420
REMARK  177  A    between atoms: _420  and  _421
REMARK  178  A    between atoms: _424  and  _426
REMARK  179  A    between atoms: _426  and  _427
REMARK  180  A    between atoms: _429  and  _431
REMARK  181  A    between atoms: _431  and  _432
REMARK  182  A    between atoms: _434  and  _436
REMARK  183  A    between atoms: _436  and  _437
REMARK  184  A    between atoms: _436  and  _439
REMARK  185  A    between atoms: _439  and  _440
REMARK  186  A    between atoms: _446  and  _448
REMARK  187  A    between atoms: _448  and  _449
REMARK  188  A    between atoms: _448  and  _451
REMARK  189  A    between atoms: _451  and  _452
REMARK  190  A    between atoms: _455  and  _457
REMARK  191  A    between atoms: _457  and  _458
REMARK  192  A    between atoms: _457  and  _460
REMARK  193  A    between atoms: _463  and  _465
REMARK  194  A    between atoms: _465  and  _466
REMARK  195  A    between atoms: _465  and  _468
REMARK  196  A    between atoms: _468  and  _469
REMARK  197  A    between atoms: _473  and  _474
REMARK  198  A    between atoms: _479  and  _481
REMARK  199  A    between atoms: _481  and  _482
REMARK  200  A    between atoms: _481  and  _484
REMARK  201  A    between atoms: _484  and  _485
REMARK  202  A    between atoms: _489  and  _490
REMARK  203  A    between atoms: _495  and  _497
REMARK  204  A    between atoms: _497  and  _498
REMARK  205  A    between atoms: _497  and  _500
REMARK  206  A    between atoms: _503  and  _505
REMARK  207  A    between atoms: _505  and  _506
REMARK  208  A    between atoms: _505  and  _508
REMARK  209  A    between atoms: _508  and  _509
REMARK  210  A    between atoms: _514  and  _516
REMARK  211  A    between atoms: _516  and  _517
REMARK  212  A    between atoms: _516  and  _519
REMARK  213  A    between atoms: _519  and  _520
REMARK  214  A    between atoms: _523  and  _525
REMARK  215  A    between atoms: _525  and  _526
REMARK  216  A    between atoms: _525  and  _528
REMARK  217  A    between atoms: _528  and  _529
REMARK  218  A    between atoms: _532  and  _534
REMARK  219  A    between atoms: _534  and  _535
REMARK  220  A    between atoms: _537  and  _539
REMARK  221  A    between atoms: _539  and  _540
REMARK  222  A    between atoms: _539  and  _542
REMARK  223  A    between atoms: _542  and  _543
REMARK  224  A    between atoms: _543  and  _544
REMARK  225  A    between atoms: _544  and  _545
REMARK  226  A    between atoms: _554  and  _556
REMARK  227  A    between atoms: _556  and  _557
REMARK  228  A    between atoms: _556  and  _559
REMARK  229  A    between atoms: _559  and  _560
REMARK                            x       y       z     vdW  Elec       q    Type
REMARK                         _______ _______ _______ _____ _____    ______ ____
ROOT
ATOM      1  CA  ARG A   2      22.903  19.731  24.348  0.00  0.00    +0.149 C 
ENDROOT
BRANCH   1   4
ATOM      2  C   GLY A   1      20.714  20.199  25.231  0.00  0.00    +0.240 C 
ATOM      3  O   GLY A   1      21.051  19.958  26.393  0.00  0.00    -0.274 OA
ATOM      4  N   ARG A   2      21.556  20.227  24.160  0.00  0.00    -0.297 N 
ATOM      5  H   ARG A   2      21.242  20.592  23.238  0.00  0.00    +0.150 HD
BRANCH   2   6
ATOM      6  CA  GLY A   1      19.289  20.506  24.908  0.00  0.00    +0.169 C 
BRANCH   6   7
ATOM      7  N   GLY A   1      18.443  20.568  26.075  0.00  0.00    -0.236 NA
ATOM      8  H   GLY A   1      18.413  21.445  26.634  0.00  0.00    +0.142 HD
ENDBRANCH   6   7
ENDBRANCH   2   6
ENDBRANCH   1   4
BRANCH   1   9
ATOM      9  C   ARG A   2      23.728  20.544  25.328  0.00  0.00    +0.241 C 
ATOM     10  O   ARG A   2      24.649  19.983  25.949  0.00  0.00    -0.273 OA
ATOM     11  N   ASN A   3      23.427  21.841  25.491  0.00  0.00    -0.298 N 
ATOM     12  H   ASN A   3      22.663  22.282  24.941  0.00  0.00    +0.150 HD
BRANCH  11  13
ATOM     13  CA  ASN A   3      24.198  22.621  26.460  0.00  0.00    +0.146 C 
BRANCH  13  14
ATOM     14  C   ASN A   3      24.156  22.017  27.862  0.00  0.00    +0.227 C 
ATOM     15  O   ASN A   3      25.154  22.114  28.598  0.00  0.00    -0.286 OA
ENDBRANCH  13  14
BRANCH  13  16
ATOM     16  CB  ASN A   3      23.727  24.074  26.505  0.00  0.00    +0.112 C 
BRANCH  16  17
ATOM     17  CG  ASN A   3      22.403  24.280  27.170  0.00  0.00    +0.222 C 
ATOM     18  ND2 ASN A   3      22.412  25.181  28.148  0.00  0.00    -0.329 N 
ATOM     19 HD21 ASN A   3      21.538  25.389  28.672  0.00  0.00    +0.145 HD
ATOM     20 HD22 ASN A   3      23.293  25.678  28.389  0.00  0.00    +0.145 HD
ATOM     21  OD1 ASN A   3      21.405  23.643  26.816  0.00  0.00    -0.275 OA
ENDBRANCH  16  17
ENDBRANCH  13  16
ENDBRANCH  11  13
ENDBRANCH   1   9
BRANCH   1  22
ATOM     22  CB  ARG A   2      23.609  19.683  22.989  0.00  0.00    +0.033 C 
BRANCH  22  23
ATOM     23  CG  ARG A   2      23.057  18.647  22.032  0.00  0.00    +0.045 C 
BRANCH  23  24
ATOM     24  CD  ARG A   2      23.798  18.458  20.726  0.00  0.00    +0.174 C 
BRANCH  24  25
ATOM     25  NE  ARG A   2      23.827  19.710  19.960  0.00  0.00    -0.265 N 
ATOM     26  CZ  ARG A   2      24.809  20.626  19.986  0.00  0.00    +0.342 C 
ATOM     27  NH2 ARG A   2      25.934  20.446  20.699  0.00  0.00    -0.292 N 
ATOM     28 HH21 ARG A   2      26.065  19.576  21.254  0.00  0.00    +0.255 HD
ATOM     29 HH22 ARG A   2      26.674  21.177  20.696  0.00  0.00    +0.255 HD
ATOM     30  NH1 ARG A   2      24.642  21.719  19.260  0.00  0.00    -0.292 N 
ATOM     31 HH11 ARG A   2      25.377  22.454  19.251  0.00  0.00    +0.255 HD
ATOM     32 HH12 ARG A   2      23.775  21.843  18.698  0.00  0.00    +0.255 HD
ATOM     33  HE  ARG A   2      23.014  19.905  19.342  0.00  0.00    +0.259 HD
ENDBRANCH  24  25
ENDBRANCH  23  24
ENDBRANCH  22  23
ENDBRANCH   1  22
TORSDOF 12
REMARK  Name = ../refined-set-2016/4kb9/4kb9_pocket.pdb
REMARK  229 active torsions:
REMARK  status: ('A' for Active; 'I' for Inactive)
REMARK    1  A    between atoms: _1  and  _3
REMARK    2  A    between atoms: _3  and  _4
REMARK    3  A    between atoms: _3  and  _6
REMARK    4  A    between atoms: _6  and  _7
REMARK    5  A    between atoms: _7  and  _8
REMARK    6  A    between atoms: _8  and  _9
REMARK    7  A    between atoms: _18  and  _20
REMARK    8  A    between atoms: _20  and  _21
REMARK    9  A    between atoms: _20  and  _23
REMARK   10  A    between atoms: _23  and  _24
REMARK   11  A    between atoms: _27  and  _29
REMARK   12  A    between atoms: _29  and  _30
REMARK   13  A    between atoms: _29  and  _32
REMARK   14  A    between atoms: _32  and  _33
REMARK   15  A    between atoms: _36  and  _38
REMARK   16  A    between atoms: _38  and  _39
REMARK   17  A    between atoms: _38  and  _41
REMARK   18  A    between atoms: _41  and  _42
REMARK   19  A    between atoms: _45  and  _47
REMARK   20  A    between atoms: _47  and  _48
REMARK   21  A    between atoms: _47  and  _50
REMARK   22  A    between atoms: _50  and  _51
REMARK   23  A    between atoms: _54  and  _56
REMARK   24  A    between atoms: _56  and  _57
REMARK   25  A    between atoms: _59  and  _61
REMARK   26  A    between atoms: _61  and  _62
REMARK   27  A    between atoms: _65  and  _67
REMARK   28  A    between atoms: _67  and  _68
REMARK   29  A    between atoms: _67  and  _70
REMARK   30  A    between atoms: _70  and  _71
REMARK   31  A    between atoms: _74  and  _76
REMARK   32  A    between atoms: _76  and  _77
REMARK   33  A    between atoms: _76  and  _79
REMARK   34  A    between atoms: _79  and  _80
REMARK   35  A    between atoms: _83  and  _85
REMARK   36  A    between atoms: _85  and  _86
REMARK   37  A    between atoms: _85  and  _88
REMARK   38  A    between atoms: _88  and  _89
REMARK   39  A    between atoms: _92  and  _94
REMARK   40  A    between atoms: _94  and  _95
REMARK   41  A    between atoms: _94  and  _97
REMARK   42  A    between atoms: _100  and  _102
REMARK   43  A    between atoms: _102  and  _103
REMARK   44  A    between atoms: _102  and  _105
REMARK   45  A    between atoms: _105  and  _106
REMARK   46  A    between atoms: _106  and  _107
REMARK   47  A    between atoms: _107  and  _108
REMARK   48  A    between atoms: _108  and  _109
REMARK   49  A    between atoms: _113  and  _115
REMARK   50  A    between atoms: _115  and  _116
REMARK   51  A    between atoms: _115  and  _118
REMARK   52  A    between atoms: _118  and  _119
REMARK   53  A    between atoms: _119  and  _120
REMARK   54  A    between atoms: _122  and  _124
REMARK   55  A    between atoms: _124  and  _125
REMARK   56  A    between atoms: _124  and  _127
REMARK   57  A    between atoms: _127  and  _128
REMARK   58  A    between atoms: _131  and  _133
REMARK   59  A    between atoms: _133  and  _134
REMARK   60  A    between atoms: _136  and  _138
REMARK   61  A    between atoms: _138  and  _139
REMARK   62  A    between atoms: _141  and  _143
REMARK   63  A    between atoms: _143  and  _144
REMARK   64  A    between atoms: _143  and  _146
REMARK   65  A    between atoms: _146  and  _147
REMARK   66  A    between atoms: _150  and  _152
REMARK   67  A    between atoms: _152  and  _153
REMARK   68  A    between atoms: _155  and  _157
REMARK   69  A    between atoms: _157  and  _158
REMARK   70  A    between atoms: _160  and  _162
REMARK   71  A    between atoms: _162  and  _163
REMARK   72  A    between atoms: _162  and  _165
REMARK   73  A    between atoms: _165  and  _166
REMARK   74  A    between atoms: _172  and  _174
REMARK   75  A    between atoms: _174  and  _175
REMARK   76  A    between atoms: _174  and  _177
REMARK   77  A    between atoms: _177  and  _178
REMARK   78  A    between atoms: _181  and  _183
REMARK   79  A    between atoms: _183  and  _184
REMARK   80  A    between atoms: _183  and  _186
REMARK   81  A    between atoms: _189  and  _191
REMARK   82  A    between atoms: _191  and  _192
REMARK   83  A    between atoms: _191  and  _194
REMARK   84  A    between atoms: _194  and  _195
REMARK   85  A    between atoms: _198  and  _200
REMARK   86  A    between atoms: _200  and  _201
REMARK   87  A    between atoms: _200  and  _203
REMARK   88  A    between atoms: _203  and  _204
REMARK   89  A    between atoms: _208  and  _209
REMARK   90  A    between atoms: _214  and  _216
REMARK   91  A    between atoms: _216  and  _217
REMARK   92  A    between atoms: _216  and  _219
REMARK   93  A    between atoms: _222  and  _224
REMARK   94  A    between atoms: _224  and  _225
REMARK   95  A    between atoms: _224  and  _227
REMARK   96  A    between atoms: _227  and  _228
REMARK   97  A    between atoms: _233  and  _235
REMARK   98  A    between atoms: _235  and  _236
REMARK   99  A    between atoms: _235  and  _238
REMARK  100  A    between atoms: _238  and  _239
REMARK  101  A    between atoms: _242  and  _244
REMARK  102  A    between atoms: _244  and  _245
REMARK  103  A    between atoms: _247  and  _249
REMARK  104  A    between atoms: _249  and  _250
REMARK  105  A    between atoms: _249  and  _252
REMARK  106  A    between atoms: _252  and  _253
REMARK  107  A    between atoms: _253  and  _254
REMARK  108  A    between atoms: _254  and  _255
REMARK  109  A    between atoms: _264  and  _266
REMARK  110  A    between atoms: _266  and  _267
REMARK  111  A    between atoms: _266  and  _269
REMARK  112  A    between atoms: _269  and  _270
REMARK  113  A    between atoms: _275  and  _277
REMARK  114  A    between atoms: _277  and  _278
REMARK  115  A    between atoms: _277  and  _280
REMARK  116  A    between atoms: _280  and  _281
REMARK  117  A    between atoms: _281  and  _282
REMARK  118  A    between atoms: _282  and  _283
REMARK  119  A    between atoms: _292  and  _294
REMARK  120  A    between atoms: _294  and  _295
REMARK  121  A    between atoms: _294  and  _297
REMARK  122  A    between atoms: _297  and  _298
REMARK  123  A    between atoms: _301  and  _303
REMARK  124  A    between atoms: _303  and  _304
REMARK  125  A    between atoms: _303  and  _306
REMARK  126  A    between atoms: _306  and  _307
REMARK  127  A    between atoms: _310  and  _312
REMARK  128  A    between atoms: _312  and  _313
REMARK  129  A    between atoms: _312  and  _315
REMARK  130  A    between atoms: _315  and  _316
REMARK  131  A    between atoms: _319  and  _321
REMARK  132  A    between atoms: _321  and  _322
REMARK  133  A    between atoms: _321  and  _324
REMARK  134  A    between atoms: _324  and  _325
REMARK  135  A    between atoms: _328  and  _330
REMARK  136  A    between atoms: _330  and  _331
REMARK  137  A    between atoms: _333  and  _335
REMARK  138  A    between atoms: _335  and  _336
REMARK  139  A    between atoms: _339  and  _341
REMARK  140  A    between atoms: _341  and  _342
REMARK  141  A    between atoms: _341  and  _344
REMARK  142  A    between atoms: _344  and  _345
REMARK  143  A    between atoms: _348  and  _350
REMARK  144  A    between atoms: _350  and  _351
REMARK  145  A    between atoms: _350  and  _353
REMARK  146  A    between atoms: _353  and  _354
REMARK  147  A    between atoms: _357  and  _359
REMARK  148  A    between atoms: _359  and  _360
REMARK  149  A    between atoms: _359  and  _362
REMARK  150  A    between atoms: _362  and  _363
REMARK  151  A    between atoms: _366  and  _368
REMARK  152  A    between atoms: _368  and  _369
REMARK  153  A    between atoms: _368  and  _371
REMARK  154  A    between atoms: _374  and  _376
REMARK  155  A    between atoms: _376  and  _377
REMARK  156  A    between atoms: _376  and  _379
REMARK  157  A    between atoms: _379  and  _380
REMARK  158  A    between atoms: _380  and  _381
REMARK  159  A    between atoms: _381  and  _382
REMARK  160  A    between atoms: _382  and  _383
REMARK  161  A    between atoms: _387  and  _389
REMARK  162  A    between atoms: _389  and  _390
REMARK  163  A    between atoms: _389  and  _392
REMARK  164  A    between atoms: _392  and  _393
REMARK  165  A    between atoms: _393  and  _394
REMARK  166  A    between atoms: _396  and  _398
REMARK  167  A    between atoms: _398  and  _399
REMARK  168  A    between atoms: _398  and  _401
REMARK  169  A    between atoms: _401  and  _402
REMARK  170  A    between atoms: _405  and  _407
REMARK  171  A    between atoms: _407  and  _408
REMARK  172  A    between atoms: _410  and  _412
REMARK  173  A    between atoms: _412  and  _413
REMARK  174  A    between atoms: _415  and  _417
REMARK  175  A    between atoms: _417  and  _418
REMARK  176  A    between atoms: _417  and  _420
REMARK  177  A    between atoms: _420  and  _421
REMARK  178  A    between atoms: _424  and  _426
REMARK  179  A    between atoms: _426  and  _427
REMARK  180  A    between atoms: _429  and  _431
REMARK  181  A    between atoms: _431  and  _432
REMARK  182  A    between atoms: _434  and  _436
REMARK  183  A    between atoms: _436  and  _437
REMARK  184  A    between atoms: _436  and  _439
REMARK  185  A    between atoms: _439  and  _440
REMARK  186  A    between atoms: _446  and  _448
REMARK  187  A    between atoms: _448  and  _449
REMARK  188  A    between atoms: _448  and  _451
REMARK  189  A    between atoms: _451  and  _452
REMARK  190  A    between atoms: _455  and  _457
REMARK  191  A    between atoms: _457  and  _458
REMARK  192  A    between atoms: _457  and  _460
REMARK  193  A    between atoms: _463  and  _465
REMARK  194  A    between atoms: _465  and  _466
REMARK  195  A    between atoms: _465  and  _468
REMARK  196  A    between atoms: _468  and  _469
REMARK  197  A    between atoms: _473  and  _474
REMARK  198  A    between atoms: _479  and  _481
REMARK  199  A    between atoms: _481  and  _482
REMARK  200  A    between atoms: _481  and  _484
REMARK  201  A    between atoms: _484  and  _485
REMARK  202  A    between atoms: _489  and  _490
REMARK  203  A    between atoms: _495  and  _497
REMARK  204  A    between atoms: _497  and  _498
REMARK  205  A    between atoms: _497  and  _500
REMARK  206  A    between atoms: _503  and  _505
REMARK  207  A    between atoms: _505  and  _506
REMARK  208  A    between atoms: _505  and  _508
REMARK  209  A    between atoms: _508  and  _509
REMARK  210  A    between atoms: _514  and  _516
REMARK  211  A    between atoms: _516  and  _517
REMARK  212  A    between atoms: _516  and  _519
REMARK  213  A    between atoms: _519  and  _520
REMARK  214  A    between atoms: _523  and  _525
REMARK  215  A    between atoms: _525  and  _526
REMARK  216  A    between atoms: _525  and  _528
REMARK  217  A    between atoms: _528  and  _529
REMARK  218  A    between atoms: _532  and  _534
REMARK  219  A    between atoms: _534  and  _535
REMARK  220  A    between atoms: _537  and  _539
REMARK  221  A    between atoms: _539  and  _540
REMARK  222  A    between atoms: _539  and  _542
REMARK  223  A    between atoms: _542  and  _543
REMARK  224  A    between atoms: _543  and  _544
REMARK  225  A    between atoms: _544  and  _545
REMARK  226  A    between atoms: _554  and  _556
REMARK  227  A    between atoms: _556  and  _557
REMARK  228  A    between atoms: _556  and  _559
REMARK  229  A    between atoms: _559  and  _560
REMARK                            x       y       z     vdW  Elec       q    Type
REMARK                         _______ _______ _______ _____ _____    ______ ____
ROOT
ATOM      1  NE  ARG A   1      23.261  22.709  15.277  0.00  0.00    -0.265 N 
ATOM      2  HE  ARG A   1      23.010  22.797  16.283  0.00  0.00    +0.259 HD
ATOM      3  CZ  ARG A   1      23.190  23.801  14.561  0.00  0.00    +0.342 C 
ATOM      4  NH2 ARG A   1      22.813  24.939  15.085  0.00  0.00    -0.292 N 
ATOM      5 HH21 ARG A   1      22.561  24.989  16.093  0.00  0.00    +0.255 HD
ATOM      6 HH22 ARG A   1      22.765  25.793  14.494  0.00  0.00    +0.255 HD
ATOM      7  NH1 ARG A   1      23.517  23.753  13.261  0.00  0.00    -0.292 N 
ATOM      8 HH11 ARG A   1      23.822  22.855  12.834  0.00  0.00    +0.255 HD
ATOM      9 HH12 ARG A   1      23.465  24.614  12.680  0.00  0.00    +0.255 HD
ENDROOT
BRANCH   1  10
ATOM     10  CD  ARG A   1      23.655  21.377  14.816  0.00  0.00    +0.174 C 
BRANCH  10  11
ATOM     11  CG  ARG A   1      24.115  20.562  16.000  0.00  0.00    +0.045 C 
BRANCH  11  12
ATOM     12  CB  ARG A   1      24.673  19.211  15.580  0.00  0.00    +0.029 C 
BRANCH  12  13
ATOM     13  CA  ARG A   1      25.268  18.392  16.736  0.00  0.00    +0.133 C 
BRANCH  13  14
ATOM     14  N   ARG A   1      26.506  19.004  17.246  0.00  0.00    -0.239 NA
ATOM     15  H   ARG A   1      26.858  19.871  16.792  0.00  0.00    +0.142 HD
ENDBRANCH  13  14
BRANCH  13  16
ATOM     16  C   ARG A   1      25.541  16.972  16.281  0.00  0.00    +0.224 C 
ATOM     17  O   ARG A   1      26.546  16.781  15.587  0.00  0.00    -0.287 OA
ENDBRANCH  13  16
ENDBRANCH  12  13
ENDBRANCH  11  12
ENDBRANCH  10  11
ENDBRANCH   1  10
TORSDOF 6
REMARK  Name = ../refined-set-2016/4kb9/4kb9_pocket.pdb
REMARK  229 active torsions:
REMARK  status: ('A' for Active; 'I' for Inactive)
REMARK    1  A    between atoms: _1  and  _3
REMARK    2  A    between atoms: _3  and  _4
REMARK    3  A    between atoms: _3  and  _6
REMARK    4  A    between atoms: _6  and  _7
REMARK    5  A    between atoms: _7  and  _8
REMARK    6  A    between atoms: _8  and  _9
REMARK    7  A    between atoms: _18  and  _20
REMARK    8  A    between atoms: _20  and  _21
REMARK    9  A    between atoms: _20  and  _23
REMARK   10  A    between atoms: _23  and  _24
REMARK   11  A    between atoms: _27  and  _29
REMARK   12  A    between atoms: _29  and  _30
REMARK   13  A    between atoms: _29  and  _32
REMARK   14  A    between atoms: _32  and  _33
REMARK   15  A    between atoms: _36  and  _38
REMARK   16  A    between atoms: _38  and  _39
REMARK   17  A    between atoms: _38  and  _41
REMARK   18  A    between atoms: _41  and  _42
REMARK   19  A    between atoms: _45  and  _47
REMARK   20  A    between atoms: _47  and  _48
REMARK   21  A    between atoms: _47  and  _50
REMARK   22  A    between atoms: _50  and  _51
REMARK   23  A    between atoms: _54  and  _56
REMARK   24  A    between atoms: _56  and  _57
REMARK   25  A    between atoms: _59  and  _61
REMARK   26  A    between atoms: _61  and  _62
REMARK   27  A    between atoms: _65  and  _67
REMARK   28  A    between atoms: _67  and  _68
REMARK   29  A    between atoms: _67  and  _70
REMARK   30  A    between atoms: _70  and  _71
REMARK   31  A    between atoms: _74  and  _76
REMARK   32  A    between atoms: _76  and  _77
REMARK   33  A    between atoms: _76  and  _79
REMARK   34  A    between atoms: _79  and  _80
REMARK   35  A    between atoms: _83  and  _85
REMARK   36  A    between atoms: _85  and  _86
REMARK   37  A    between atoms: _85  and  _88
REMARK   38  A    between atoms: _88  and  _89
REMARK   39  A    between atoms: _92  and  _94
REMARK   40  A    between atoms: _94  and  _95
REMARK   41  A    between atoms: _94  and  _97
REMARK   42  A    between atoms: _100  and  _102
REMARK   43  A    between atoms: _102  and  _103
REMARK   44  A    between atoms: _102  and  _105
REMARK   45  A    between atoms: _105  and  _106
REMARK   46  A    between atoms: _106  and  _107
REMARK   47  A    between atoms: _107  and  _108
REMARK   48  A    between atoms: _108  and  _109
REMARK   49  A    between atoms: _113  and  _115
REMARK   50  A    between atoms: _115  and  _116
REMARK   51  A    between atoms: _115  and  _118
REMARK   52  A    between atoms: _118  and  _119
REMARK   53  A    between atoms: _119  and  _120
REMARK   54  A    between atoms: _122  and  _124
REMARK   55  A    between atoms: _124  and  _125
REMARK   56  A    between atoms: _124  and  _127
REMARK   57  A    between atoms: _127  and  _128
REMARK   58  A    between atoms: _131  and  _133
REMARK   59  A    between atoms: _133  and  _134
REMARK   60  A    between atoms: _136  and  _138
REMARK   61  A    between atoms: _138  and  _139
REMARK   62  A    between atoms: _141  and  _143
REMARK   63  A    between atoms: _143  and  _144
REMARK   64  A    between atoms: _143  and  _146
REMARK   65  A    between atoms: _146  and  _147
REMARK   66  A    between atoms: _150  and  _152
REMARK   67  A    between atoms: _152  and  _153
REMARK   68  A    between atoms: _155  and  _157
REMARK   69  A    between atoms: _157  and  _158
REMARK   70  A    between atoms: _160  and  _162
REMARK   71  A    between atoms: _162  and  _163
REMARK   72  A    between atoms: _162  and  _165
REMARK   73  A    between atoms: _165  and  _166
REMARK   74  A    between atoms: _172  and  _174
REMARK   75  A    between atoms: _174  and  _175
REMARK   76  A    between atoms: _174  and  _177
REMARK   77  A    between atoms: _177  and  _178
REMARK   78  A    between atoms: _181  and  _183
REMARK   79  A    between atoms: _183  and  _184
REMARK   80  A    between atoms: _183  and  _186
REMARK   81  A    between atoms: _189  and  _191
REMARK   82  A    between atoms: _191  and  _192
REMARK   83  A    between atoms: _191  and  _194
REMARK   84  A    between atoms: _194  and  _195
REMARK   85  A    between atoms: _198  and  _200
REMARK   86  A    between atoms: _200  and  _201
REMARK   87  A    between atoms: _200  and  _203
REMARK   88  A    between atoms: _203  and  _204
REMARK   89  A    between atoms: _208  and  _209
REMARK   90  A    between atoms: _214  and  _216
REMARK   91  A    between atoms: _216  and  _217
REMARK   92  A    between atoms: _216  and  _219
REMARK   93  A    between atoms: _222  and  _224
REMARK   94  A    between atoms: _224  and  _225
REMARK   95  A    between atoms: _224  and  _227
REMARK   96  A    between atoms: _227  and  _228
REMARK   97  A    between atoms: _233  and  _235
REMARK   98  A    between atoms: _235  and  _236
REMARK   99  A    between atoms: _235  and  _238
REMARK  100  A    between atoms: _238  and  _239
REMARK  101  A    between atoms: _242  and  _244
REMARK  102  A    between atoms: _244  and  _245
REMARK  103  A    between atoms: _247  and  _249
REMARK  104  A    between atoms: _249  and  _250
REMARK  105  A    between atoms: _249  and  _252
REMARK  106  A    between atoms: _252  and  _253
REMARK  107  A    between atoms: _253  and  _254
REMARK  108  A    between atoms: _254  and  _255
REMARK  109  A    between atoms: _264  and  _266
REMARK  110  A    between atoms: _266  and  _267
REMARK  111  A    between atoms: _266  and  _269
REMARK  112  A    between atoms: _269  and  _270
REMARK  113  A    between atoms: _275  and  _277
REMARK  114  A    between atoms: _277  and  _278
REMARK  115  A    between atoms: _277  and  _280
REMARK  116  A    between atoms: _280  and  _281
REMARK  117  A    between atoms: _281  and  _282
REMARK  118  A    between atoms: _282  and  _283
REMARK  119  A    between atoms: _292  and  _294
REMARK  120  A    between atoms: _294  and  _295
REMARK  121  A    between atoms: _294  and  _297
REMARK  122  A    between atoms: _297  and  _298
REMARK  123  A    between atoms: _301  and  _303
REMARK  124  A    between atoms: _303  and  _304
REMARK  125  A    between atoms: _303  and  _306
REMARK  126  A    between atoms: _306  and  _307
REMARK  127  A    between atoms: _310  and  _312
REMARK  128  A    between atoms: _312  and  _313
REMARK  129  A    between atoms: _312  and  _315
REMARK  130  A    between atoms: _315  and  _316
REMARK  131  A    between atoms: _319  and  _321
REMARK  132  A    between atoms: _321  and  _322
REMARK  133  A    between atoms: _321  and  _324
REMARK  134  A    between atoms: _324  and  _325
REMARK  135  A    between atoms: _328  and  _330
REMARK  136  A    between atoms: _330  and  _331
REMARK  137  A    between atoms: _333  and  _335
REMARK  138  A    between atoms: _335  and  _336
REMARK  139  A    between atoms: _339  and  _341
REMARK  140  A    between atoms: _341  and  _342
REMARK  141  A    between atoms: _341  and  _344
REMARK  142  A    between atoms: _344  and  _345
REMARK  143  A    between atoms: _348  and  _350
REMARK  144  A    between atoms: _350  and  _351
REMARK  145  A    between atoms: _350  and  _353
REMARK  146  A    between atoms: _353  and  _354
REMARK  147  A    between atoms: _357  and  _359
REMARK  148  A    between atoms: _359  and  _360
REMARK  149  A    between atoms: _359  and  _362
REMARK  150  A    between atoms: _362  and  _363
REMARK  151  A    between atoms: _366  and  _368
REMARK  152  A    between atoms: _368  and  _369
REMARK  153  A    between atoms: _368  and  _371
REMARK  154  A    between atoms: _374  and  _376
REMARK  155  A    between atoms: _376  and  _377
REMARK  156  A    between atoms: _376  and  _379
REMARK  157  A    between atoms: _379  and  _380
REMARK  158  A    between atoms: _380  and  _381
REMARK  159  A    between atoms: _381  and  _382
REMARK  160  A    between atoms: _382  and  _383
REMARK  161  A    between atoms: _387  and  _389
REMARK  162  A    between atoms: _389  and  _390
REMARK  163  A    between atoms: _389  and  _392
REMARK  164  A    between atoms: _392  and  _393
REMARK  165  A    between atoms: _393  and  _394
REMARK  166  A    between atoms: _396  and  _398
REMARK  167  A    between atoms: _398  and  _399
REMARK  168  A    between atoms: _398  and  _401
REMARK  169  A    between atoms: _401  and  _402
REMARK  170  A    between atoms: _405  and  _407
REMARK  171  A    between atoms: _407  and  _408
REMARK  172  A    between atoms: _410  and  _412
REMARK  173  A    between atoms: _412  and  _413
REMARK  174  A    between atoms: _415  and  _417
REMARK  175  A    between atoms: _417  and  _418
REMARK  176  A    between atoms: _417  and  _420
REMARK  177  A    between atoms: _420  and  _421
REMARK  178  A    between atoms: _424  and  _426
REMARK  179  A    between atoms: _426  and  _427
REMARK  180  A    between atoms: _429  and  _431
REMARK  181  A    between atoms: _431  and  _432
REMARK  182  A    between atoms: _434  and  _436
REMARK  183  A    between atoms: _436  and  _437
REMARK  184  A    between atoms: _436  and  _439
REMARK  185  A    between atoms: _439  and  _440
REMARK  186  A    between atoms: _446  and  _448
REMARK  187  A    between atoms: _448  and  _449
REMARK  188  A    between atoms: _448  and  _451
REMARK  189  A    between atoms: _451  and  _452
REMARK  190  A    between atoms: _455  and  _457
REMARK  191  A    between atoms: _457  and  _458
REMARK  192  A    between atoms: _457  and  _460
REMARK  193  A    between atoms: _463  and  _465
REMARK  194  A    between atoms: _465  and  _466
REMARK  195  A    between atoms: _465  and  _468
REMARK  196  A    between atoms: _468  and  _469
REMARK  197  A    between atoms: _473  and  _474
REMARK  198  A    between atoms: _479  and  _481
REMARK  199  A    between atoms: _481  and  _482
REMARK  200  A    between atoms: _481  and  _484
REMARK  201  A    between atoms: _484  and  _485
REMARK  202  A    between atoms: _489  and  _490
REMARK  203  A    between atoms: _495  and  _497
REMARK  204  A    between atoms: _497  and  _498
REMARK  205  A    between atoms: _497  and  _500
REMARK  206  A    between atoms: _503  and  _505
REMARK  207  A    between atoms: _505  and  _506
REMARK  208  A    between atoms: _505  and  _508
REMARK  209  A    between atoms: _508  and  _509
REMARK  210  A    between atoms: _514  and  _516
REMARK  211  A    between atoms: _516  and  _517
REMARK  212  A    between atoms: _516  and  _519
REMARK  213  A    between atoms: _519  and  _520
REMARK  214  A    between atoms: _523  and  _525
REMARK  215  A    between atoms: _525  and  _526
REMARK  216  A    between atoms: _525  and  _528
REMARK  217  A    between atoms: _528  and  _529
REMARK  218  A    between atoms: _532  and  _534
REMARK  219  A    between atoms: _534  and  _535
REMARK  220  A    between atoms: _537  and  _539
REMARK  221  A    between atoms: _539  and  _540
REMARK  222  A    between atoms: _539  and  _542
REMARK  223  A    between atoms: _542  and  _543
REMARK  224  A    between atoms: _543  and  _544
REMARK  225  A    between atoms: _544  and  _545
REMARK  226  A    between atoms: _554  and  _556
REMARK  227  A    between atoms: _556  and  _557
REMARK  228  A    between atoms: _556  and  _559
REMARK  229  A    between atoms: _559  and  _560
REMARK                            x       y       z     vdW  Elec       q    Type
REMARK                         _______ _______ _______ _____ _____    ______ ____
ROOT
ATOM      1  C   GLY A   5      12.224  14.888  19.735  0.00  0.00    +0.243 C 
ATOM      2  O   GLY A   5      11.146  15.512  19.877  0.00  0.00    -0.273 OA
ATOM      3  N   ALA A   6      12.472  14.157  18.651  0.00  0.00    -0.297 N 
ATOM      4  H   ALA A   6      13.378  13.647  18.615  0.00  0.00    +0.150 HD
ENDROOT
BRANCH   3   5
ATOM      5  CA  ALA A   6      11.579  14.014  17.514  0.00  0.00    +0.149 C 
ATOM      6  CB  ALA A   6      12.363  14.138  16.220  0.00  0.00    +0.031 C 
BRANCH   5   7
ATOM      7  C   ALA A   6      10.877  12.664  17.543  0.00  0.00    +0.241 C 
ATOM      8  N   ASP A   7       9.545  12.638  17.551  0.00  0.00    -0.297 N 
ATOM      9  H   ASP A   7       9.002  13.524  17.587  0.00  0.00    +0.150 HD
ATOM     10  O   ALA A   6      11.535  11.636  17.542  0.00  0.00    -0.273 OA
BRANCH   8  11
ATOM     11  CA  ASP A   7       8.854  11.349  17.508  0.00  0.00    +0.160 C 
BRANCH  11  12
ATOM     12  C   ASP A   7       9.079  10.654  16.190  0.00  0.00    +0.241 C 
ATOM     13  O   ASP A   7       9.154   9.412  16.149  0.00  0.00    -0.273 OA
ATOM     14  N   ASP A   8       9.114  11.447  15.117  0.00  0.00    -0.297 N 
ATOM     15  H   ASP A   8       9.155  12.473  15.280  0.00  0.00    +0.150 HD
BRANCH  14  16
ATOM     16  CA  ASP A   8       9.099  10.993  13.754  0.00  0.00    +0.160 C 
BRANCH  16  17
ATOM     17  C   ASP A   8      10.329  11.523  13.014  0.00  0.00    +0.241 C 
ATOM     18  O   ASP A   8      10.965  12.488  13.421  0.00  0.00    -0.273 OA
ATOM     19  N   THR A   9      10.644  10.897  11.899  0.00  0.00    -0.295 N 
ATOM     20  H   THR A   9      10.070  10.067  11.649  0.00  0.00    +0.150 HD
BRANCH  19  21
ATOM     21  CA  THR A   9      11.697  11.247  10.999  0.00  0.00    +0.176 C 
BRANCH  21  22
ATOM     22  C   THR A   9      11.174  12.194   9.917  0.00  0.00    +0.243 C 
ATOM     23  N   VAL A  10      11.873  13.335   9.715  0.00  0.00    -0.298 N 
ATOM     24  H   VAL A  10      12.776  13.466  10.215  0.00  0.00    +0.150 HD
ATOM     25  O   THR A   9      10.146  11.899   9.305  0.00  0.00    -0.273 OA
BRANCH  23  26
ATOM     26  CA  VAL A  10      11.405  14.387   8.822  0.00  0.00    +0.137 C 
BRANCH  26  27
ATOM     27  CB  VAL A  10      10.898  15.605   9.611  0.00  0.00    +0.026 C 
ATOM     28  CG2 VAL A  10      10.082  15.257  10.839  0.00  0.00    +0.002 C 
ATOM     29  CG1 VAL A  10      10.077  16.495   8.635  0.00  0.00    +0.002 C 
ENDBRANCH  26  27
BRANCH  26  30
ATOM     30  C   VAL A  10      12.560  14.784   7.914  0.00  0.00    +0.227 C 
ATOM     31  O   VAL A  10      13.629  15.179   8.389  0.00  0.00    -0.286 OA
ENDBRANCH  26  30
ENDBRANCH  23  26
ENDBRANCH  21  22
BRANCH  21  32
ATOM     32  CB  THR A   9      12.225   9.927  10.383  0.00  0.00    +0.137 C 
ATOM     33  CG2 THR A   9      13.229  10.153   9.299  0.00  0.00    +0.034 C 
BRANCH  32  34
ATOM     34  OG1 THR A   9      12.866   9.218  11.452  0.00  0.00    -0.382 OA
ATOM     35  HG1 THR A   9      12.208   9.039  12.169  0.00  0.00    +0.210 HD
ENDBRANCH  32  34
ENDBRANCH  21  32
ENDBRANCH  19  21
ENDBRANCH  16  17
BRANCH  16  36
ATOM     36  CB  ASP A   8       7.829  11.474  13.042  0.00  0.00    +0.143 C 
BRANCH  36  37
ATOM     37  CG  ASP A   8       6.523  10.881  13.541  0.00  0.00    +0.367 C 
ATOM     38  OD2 ASP A   8       6.574   9.849  14.205  0.00  0.00    -0.246 OA
ATOM     39  OD1 ASP A   8       5.414  11.407  13.295  0.00  0.00    -0.246 OA
ENDBRANCH  36  37
ENDBRANCH  16  36
ENDBRANCH  14  16
ENDBRANCH  11  12
BRANCH  11  40
ATOM     40  CB  ASP A   7       7.340  11.577  17.699  0.00  0.00    +0.143 C 
BRANCH  40  41
ATOM     41  CG  ASP A   7       6.884  12.102  19.046  0.00  0.00    +0.367 C 
ATOM     42  OD2 ASP A   7       7.602  12.026  20.062  0.00  0.00    -0.246 OA
ATOM     43  OD1 ASP A   7       5.703  12.551  19.056  0.00  0.00    -0.246 OA
ENDBRANCH  40  41
ENDBRANCH  11  40
ENDBRANCH   8  11
ENDBRANCH   5   7
ENDBRANCH   3   5
BRANCH   1  44
ATOM     44  CA  GLY A   5      13.228  14.922  20.841  0.00  0.00    +0.176 C 
BRANCH  44  47
ATOM     45  C   THR A   4      14.483  12.842  20.852  0.00  0.00    +0.243 C 
ATOM     46  O   THR A   4      13.548  12.230  21.379  0.00  0.00    -0.273 OA
ATOM     47  N   GLY A   5      14.422  14.128  20.584  0.00  0.00    -0.295 N 
ATOM     48  H   GLY A   5      15.256  14.595  20.174  0.00  0.00    +0.150 HD
BRANCH  45  49
ATOM     49  CA  THR A   4      15.748  12.078  20.489  0.00  0.00    +0.176 C 
BRANCH  49  51
ATOM     50  C   ASP A   3      16.144  12.916  18.261  0.00  0.00    +0.241 C 
ATOM     51  N   THR A   4      16.567  12.786  19.523  0.00  0.00    -0.295 N 
ATOM     52  H   THR A   4      17.480  13.191  19.811  0.00  0.00    +0.150 HD
ATOM     53  O   ASP A   3      15.055  12.527  17.888  0.00  0.00    -0.273 OA
BRANCH  50  54
ATOM     54  CA  ASP A   3      17.113  13.660  17.338  0.00  0.00    +0.160 C 
BRANCH  54  57
ATOM     55  C   LEU A   2      19.234  12.801  16.506  0.00  0.00    +0.241 C 
ATOM     56  O   LEU A   2      19.878  13.463  17.326  0.00  0.00    -0.273 OA
ATOM     57  N   ASP A   3      17.916  12.755  16.539  0.00  0.00    -0.297 N 
ATOM     58  H   ASP A   3      17.430  12.036  15.965  0.00  0.00    +0.150 HD
BRANCH  55  59
ATOM     59  CA  LEU A   2      19.987  12.091  15.401  0.00  0.00    +0.149 C 
BRANCH  59  61
ATOM     60  C   LEU A   1      19.831  13.763  13.665  0.00  0.00    +0.238 C 
ATOM     61  N   LEU A   2      20.583  13.120  14.532  0.00  0.00    -0.297 N 
ATOM     62  H   LEU A   2      21.597  13.338  14.604  0.00  0.00    +0.150 HD
ATOM     63  O   LEU A   1      18.636  13.521  13.425  0.00  0.00    -0.274 OA
BRANCH  60  64
ATOM     64  CA  LEU A   1      20.466  14.924  12.930  0.00  0.00    +0.145 C 
BRANCH  64  65
ATOM     65  N   LEU A   1      20.298  14.813  11.501  0.00  0.00    -0.238 NA
ATOM     66  H   LEU A   1      19.440  15.227  11.084  0.00  0.00    +0.142 HD
ENDBRANCH  64  65
BRANCH  64  67
ATOM     67  CB  LEU A   1      19.795  16.268  13.304  0.00  0.00    +0.026 C 
BRANCH  67  68
ATOM     68  CG  LEU A   1      19.919  16.826  14.690  0.00  0.00    +0.002 C 
ATOM     69  CD2 LEU A   1      21.340  17.154  14.996  0.00  0.00    +0.000 C 
ATOM     70  CD1 LEU A   1      19.020  18.048  14.749  0.00  0.00    +0.000 C 
ENDBRANCH  67  68
ENDBRANCH  64  67
ENDBRANCH  60  64
ENDBRANCH  59  61
BRANCH  59  71
ATOM     71  CB  LEU A   2      21.084  11.180  15.944  0.00  0.00    +0.029 C 
BRANCH  71  72
ATOM     72  CG  LEU A   2      21.893  10.411  14.898  0.00  0.00    +0.002 C 
ATOM     73  CD2 LEU A   2      22.863   9.530  15.657  0.00  0.00    +0.000 C 
ATOM     74  CD1 LEU A   2      21.005   9.637  13.938  0.00  0.00    +0.000 C 
ENDBRANCH  71  72
ENDBRANCH  59  71
ENDBRANCH  55  59
ENDBRANCH  54  57
BRANCH  54  75
ATOM     75  CB  ASP A   3      16.346  14.541  16.379  0.00  0.00    +0.143 C 
BRANCH  75  76
ATOM     76  CG  ASP A   3      15.676  15.677  17.093  0.00  0.00    +0.367 C 
ATOM     77  OD2 ASP A   3      15.689  15.664  18.358  0.00  0.00    -0.246 OA
ATOM     78  OD1 ASP A   3      15.129  16.576  16.408  0.00  0.00    -0.246 OA
ENDBRANCH  75  76
ENDBRANCH  54  75
ENDBRANCH  50  54
ENDBRANCH  49  51
BRANCH  49  79
ATOM     79  CB  THR A   4      16.511  11.771  21.769  0.00  0.00    +0.137 C 
ATOM     80  CG2 THR A   4      17.706  10.890  21.516  0.00  0.00    +0.034 C 
BRANCH  79  81
ATOM     81  OG1 THR A   4      16.995  13.000  22.357  0.00  0.00    -0.382 OA
ATOM     82  HG1 THR A   4      16.227  13.589  22.566  0.00  0.00    +0.210 HD
ENDBRANCH  79  81
ENDBRANCH  49  79
ENDBRANCH  45  49
ENDBRANCH  44  47
ENDBRANCH   1  44
TORSDOF 35
REMARK  Name = ../refined-set-2016/4kb9/4kb9_pocket.pdb
REMARK  229 active torsions:
REMARK  status: ('A' for Active; 'I' for Inactive)
REMARK    1  A    between atoms: _1  and  _3
REMARK    2  A    between atoms: _3  and  _4
REMARK    3  A    between atoms: _3  and  _6
REMARK    4  A    between atoms: _6  and  _7
REMARK    5  A    between atoms: _7  and  _8
REMARK    6  A    between atoms: _8  and  _9
REMARK    7  A    between atoms: _18  and  _20
REMARK    8  A    between atoms: _20  and  _21
REMARK    9  A    between atoms: _20  and  _23
REMARK   10  A    between atoms: _23  and  _24
REMARK   11  A    between atoms: _27  and  _29
REMARK   12  A    between atoms: _29  and  _30
REMARK   13  A    between atoms: _29  and  _32
REMARK   14  A    between atoms: _32  and  _33
REMARK   15  A    between atoms: _36  and  _38
REMARK   16  A    between atoms: _38  and  _39
REMARK   17  A    between atoms: _38  and  _41
REMARK   18  A    between atoms: _41  and  _42
REMARK   19  A    between atoms: _45  and  _47
REMARK   20  A    between atoms: _47  and  _48
REMARK   21  A    between atoms: _47  and  _50
REMARK   22  A    between atoms: _50  and  _51
REMARK   23  A    between atoms: _54  and  _56
REMARK   24  A    between atoms: _56  and  _57
REMARK   25  A    between atoms: _59  and  _61
REMARK   26  A    between atoms: _61  and  _62
REMARK   27  A    between atoms: _65  and  _67
REMARK   28  A    between atoms: _67  and  _68
REMARK   29  A    between atoms: _67  and  _70
REMARK   30  A    between atoms: _70  and  _71
REMARK   31  A    between atoms: _74  and  _76
REMARK   32  A    between atoms: _76  and  _77
REMARK   33  A    between atoms: _76  and  _79
REMARK   34  A    between atoms: _79  and  _80
REMARK   35  A    between atoms: _83  and  _85
REMARK   36  A    between atoms: _85  and  _86
REMARK   37  A    between atoms: _85  and  _88
REMARK   38  A    between atoms: _88  and  _89
REMARK   39  A    between atoms: _92  and  _94
REMARK   40  A    between atoms: _94  and  _95
REMARK   41  A    between atoms: _94  and  _97
REMARK   42  A    between atoms: _100  and  _102
REMARK   43  A    between atoms: _102  and  _103
REMARK   44  A    between atoms: _102  and  _105
REMARK   45  A    between atoms: _105  and  _106
REMARK   46  A    between atoms: _106  and  _107
REMARK   47  A    between atoms: _107  and  _108
REMARK   48  A    between atoms: _108  and  _109
REMARK   49  A    between atoms: _113  and  _115
REMARK   50  A    between atoms: _115  and  _116
REMARK   51  A    between atoms: _115  and  _118
REMARK   52  A    between atoms: _118  and  _119
REMARK   53  A    between atoms: _119  and  _120
REMARK   54  A    between atoms: _122  and  _124
REMARK   55  A    between atoms: _124  and  _125
REMARK   56  A    between atoms: _124  and  _127
REMARK   57  A    between atoms: _127  and  _128
REMARK   58  A    between atoms: _131  and  _133
REMARK   59  A    between atoms: _133  and  _134
REMARK   60  A    between atoms: _136  and  _138
REMARK   61  A    between atoms: _138  and  _139
REMARK   62  A    between atoms: _141  and  _143
REMARK   63  A    between atoms: _143  and  _144
REMARK   64  A    between atoms: _143  and  _146
REMARK   65  A    between atoms: _146  and  _147
REMARK   66  A    between atoms: _150  and  _152
REMARK   67  A    between atoms: _152  and  _153
REMARK   68  A    between atoms: _155  and  _157
REMARK   69  A    between atoms: _157  and  _158
REMARK   70  A    between atoms: _160  and  _162
REMARK   71  A    between atoms: _162  and  _163
REMARK   72  A    between atoms: _162  and  _165
REMARK   73  A    between atoms: _165  and  _166
REMARK   74  A    between atoms: _172  and  _174
REMARK   75  A    between atoms: _174  and  _175
REMARK   76  A    between atoms: _174  and  _177
REMARK   77  A    between atoms: _177  and  _178
REMARK   78  A    between atoms: _181  and  _183
REMARK   79  A    between atoms: _183  and  _184
REMARK   80  A    between atoms: _183  and  _186
REMARK   81  A    between atoms: _189  and  _191
REMARK   82  A    between atoms: _191  and  _192
REMARK   83  A    between atoms: _191  and  _194
REMARK   84  A    between atoms: _194  and  _195
REMARK   85  A    between atoms: _198  and  _200
REMARK   86  A    between atoms: _200  and  _201
REMARK   87  A    between atoms: _200  and  _203
REMARK   88  A    between atoms: _203  and  _204
REMARK   89  A    between atoms: _208  and  _209
REMARK   90  A    between atoms: _214  and  _216
REMARK   91  A    between atoms: _216  and  _217
REMARK   92  A    between atoms: _216  and  _219
REMARK   93  A    between atoms: _222  and  _224
REMARK   94  A    between atoms: _224  and  _225
REMARK   95  A    between atoms: _224  and  _227
REMARK   96  A    between atoms: _227  and  _228
REMARK   97  A    between atoms: _233  and  _235
REMARK   98  A    between atoms: _235  and  _236
REMARK   99  A    between atoms: _235  and  _238
REMARK  100  A    between atoms: _238  and  _239
REMARK  101  A    between atoms: _242  and  _244
REMARK  102  A    between atoms: _244  and  _245
REMARK  103  A    between atoms: _247  and  _249
REMARK  104  A    between atoms: _249  and  _250
REMARK  105  A    between atoms: _249  and  _252
REMARK  106  A    between atoms: _252  and  _253
REMARK  107  A    between atoms: _253  and  _254
REMARK  108  A    between atoms: _254  and  _255
REMARK  109  A    between atoms: _264  and  _266
REMARK  110  A    between atoms: _266  and  _267
REMARK  111  A    between atoms: _266  and  _269
REMARK  112  A    between atoms: _269  and  _270
REMARK  113  A    between atoms: _275  and  _277
REMARK  114  A    between atoms: _277  and  _278
REMARK  115  A    between atoms: _277  and  _280
REMARK  116  A    between atoms: _280  and  _281
REMARK  117  A    between atoms: _281  and  _282
REMARK  118  A    between atoms: _282  and  _283
REMARK  119  A    between atoms: _292  and  _294
REMARK  120  A    between atoms: _294  and  _295
REMARK  121  A    between atoms: _294  and  _297
REMARK  122  A    between atoms: _297  and  _298
REMARK  123  A    between atoms: _301  and  _303
REMARK  124  A    between atoms: _303  and  _304
REMARK  125  A    between atoms: _303  and  _306
REMARK  126  A    between atoms: _306  and  _307
REMARK  127  A    between atoms: _310  and  _312
REMARK  128  A    between atoms: _312  and  _313
REMARK  129  A    between atoms: _312  and  _315
REMARK  130  A    between atoms: _315  and  _316
REMARK  131  A    between atoms: _319  and  _321
REMARK  132  A    between atoms: _321  and  _322
REMARK  133  A    between atoms: _321  and  _324
REMARK  134  A    between atoms: _324  and  _325
REMARK  135  A    between atoms: _328  and  _330
REMARK  136  A    between atoms: _330  and  _331
REMARK  137  A    between atoms: _333  and  _335
REMARK  138  A    between atoms: _335  and  _336
REMARK  139  A    between atoms: _339  and  _341
REMARK  140  A    between atoms: _341  and  _342
REMARK  141  A    between atoms: _341  and  _344
REMARK  142  A    between atoms: _344  and  _345
REMARK  143  A    between atoms: _348  and  _350
REMARK  144  A    between atoms: _350  and  _351
REMARK  145  A    between atoms: _350  and  _353
REMARK  146  A    between atoms: _353  and  _354
REMARK  147  A    between atoms: _357  and  _359
REMARK  148  A    between atoms: _359  and  _360
REMARK  149  A    between atoms: _359  and  _362
REMARK  150  A    between atoms: _362  and  _363
REMARK  151  A    between atoms: _366  and  _368
REMARK  152  A    between atoms: _368  and  _369
REMARK  153  A    between atoms: _368  and  _371
REMARK  154  A    between atoms: _374  and  _376
REMARK  155  A    between atoms: _376  and  _377
REMARK  156  A    between atoms: _376  and  _379
REMARK  157  A    between atoms: _379  and  _380
REMARK  158  A    between atoms: _380  and  _381
REMARK  159  A    between atoms: _381  and  _382
REMARK  160  A    between atoms: _382  and  _383
REMARK  161  A    between atoms: _387  and  _389
REMARK  162  A    between atoms: _389  and  _390
REMARK  163  A    between atoms: _389  and  _392
REMARK  164  A    between atoms: _392  and  _393
REMARK  165  A    between atoms: _393  and  _394
REMARK  166  A    between atoms: _396  and  _398
REMARK  167  A    between atoms: _398  and  _399
REMARK  168  A    between atoms: _398  and  _401
REMARK  169  A    between atoms: _401  and  _402
REMARK  170  A    between atoms: _405  and  _407
REMARK  171  A    between atoms: _407  and  _408
REMARK  172  A    between atoms: _410  and  _412
REMARK  173  A    between atoms: _412  and  _413
REMARK  174  A    between atoms: _415  and  _417
REMARK  175  A    between atoms: _417  and  _418
REMARK  176  A    between atoms: _417  and  _420
REMARK  177  A    between atoms: _420  and  _421
REMARK  178  A    between atoms: _424  and  _426
REMARK  179  A    between atoms: _426  and  _427
REMARK  180  A    between atoms: _429  and  _431
REMARK  181  A    between atoms: _431  and  _432
REMARK  182  A    between atoms: _434  and  _436
REMARK  183  A    between atoms: _436  and  _437
REMARK  184  A    between atoms: _436  and  _439
REMARK  185  A    between atoms: _439  and  _440
REMARK  186  A    between atoms: _446  and  _448
REMARK  187  A    between atoms: _448  and  _449
REMARK  188  A    between atoms: _448  and  _451
REMARK  189  A    between atoms: _451  and  _452
REMARK  190  A    between atoms: _455  and  _457
REMARK  191  A    between atoms: _457  and  _458
REMARK  192  A    between atoms: _457  and  _460
REMARK  193  A    between atoms: _463  and  _465
REMARK  194  A    between atoms: _465  and  _466
REMARK  195  A    between atoms: _465  and  _468
REMARK  196  A    between atoms: _468  and  _469
REMARK  197  A    between atoms: _473  and  _474
REMARK  198  A    between atoms: _479  and  _481
REMARK  199  A    between atoms: _481  and  _482
REMARK  200  A    between atoms: _481  and  _484
REMARK  201  A    between atoms: _484  and  _485
REMARK  202  A    between atoms: _489  and  _490
REMARK  203  A    between atoms: _495  and  _497
REMARK  204  A    between atoms: _497  and  _498
REMARK  205  A    between atoms: _497  and  _500
REMARK  206  A    between atoms: _503  and  _505
REMARK  207  A    between atoms: _505  and  _506
REMARK  208  A    between atoms: _505  and  _508
REMARK  209  A    between atoms: _508  and  _509
REMARK  210  A    between atoms: _514  and  _516
REMARK  211  A    between atoms: _516  and  _517
REMARK  212  A    between atoms: _516  and  _519
REMARK  213  A    between atoms: _519  and  _520
REMARK  214  A    between atoms: _523  and  _525
REMARK  215  A    between atoms: _525  and  _526
REMARK  216  A    between atoms: _525  and  _528
REMARK  217  A    between atoms: _528  and  _529
REMARK  218  A    between atoms: _532  and  _534
REMARK  219  A    between atoms: _534  and  _535
REMARK  220  A    between atoms: _537  and  _539
REMARK  221  A    between atoms: _539  and  _540
REMARK  222  A    between atoms: _539  and  _542
REMARK  223  A    between atoms: _542  and  _543
REMARK  224  A    between atoms: _543  and  _544
REMARK  225  A    between atoms: _544  and  _545
REMARK  226  A    between atoms: _554  and  _556
REMARK  227  A    between atoms: _556  and  _557
REMARK  228  A    between atoms: _556  and  _559
REMARK  229  A    between atoms: _559  and  _560
REMARK                            x       y       z     vdW  Elec       q    Type
REMARK                         _______ _______ _______ _____ _____    ______ ____
ROOT
ATOM      1  C   GLY A   5       7.473  23.596  17.471  0.00  0.00    +0.243 C 
ATOM      2  N   ILE A   6       8.708  23.966  17.795  0.00  0.00    -0.297 N 
ATOM      3  H   ILE A   6       9.500  23.292  17.809  0.00  0.00    +0.150 HD
ATOM      4  O   GLY A   5       6.463  24.285  17.529  0.00  0.00    -0.273 OA
ENDROOT
BRANCH   1   5
ATOM      5  CA  GLY A   5       7.345  22.137  17.067  0.00  0.00    +0.176 C 
BRANCH   5   8
ATOM      6  C   GLY A   4       5.538  20.844  16.110  0.00  0.00    +0.243 C 
ATOM      7  O   GLY A   4       5.891  19.860  16.730  0.00  0.00    -0.273 OA
ATOM      8  N   GLY A   5       6.185  21.978  16.241  0.00  0.00    -0.295 N 
ATOM      9  H   GLY A   5       5.837  22.806  15.717  0.00  0.00    +0.150 HD
BRANCH   6  10
ATOM     10  CA  GLY A   4       4.371  20.880  15.185  0.00  0.00    +0.176 C 
BRANCH  10  12
ATOM     11  C   ILE A   3       3.986  19.576  13.196  0.00  0.00    +0.241 C 
ATOM     12  N   GLY A   4       4.134  19.635  14.497  0.00  0.00    -0.295 N 
ATOM     13  H   GLY A   4       4.079  18.756  15.051  0.00  0.00    +0.150 HD
ATOM     14  O   ILE A   3       4.161  20.565  12.469  0.00  0.00    -0.273 OA
BRANCH  11  15
ATOM     15  CA  ILE A   3       3.578  18.224  12.638  0.00  0.00    +0.149 C 
BRANCH  15  18
ATOM     16  C   MET A   2       1.532  17.950  11.325  0.00  0.00    +0.241 C 
ATOM     17  O   MET A   2       1.027  17.150  12.141  0.00  0.00    -0.273 OA
ATOM     18  N   ILE A   3       2.726  18.470  11.473  0.00  0.00    -0.297 N 
ATOM     19  H   ILE A   3       3.088  19.091  10.722  0.00  0.00    +0.150 HD
BRANCH  16  20
ATOM     20  CA  MET A   2       0.702  18.320  10.103  0.00  0.00    +0.149 C 
BRANCH  20  22
ATOM     21  C   LYS A   1       0.552  16.661   8.349  0.00  0.00    +0.238 C 
ATOM     22  N   MET A   2       0.151  17.127   9.513  0.00  0.00    -0.297 N 
ATOM     23  H   MET A   2      -0.593  16.613  10.027  0.00  0.00    +0.150 HD
ATOM     24  O   LYS A   1       1.271  17.327   7.564  0.00  0.00    -0.274 OA
BRANCH  21  25
ATOM     25  CA  LYS A   1       0.075  15.274   7.919  0.00  0.00    +0.145 C 
BRANCH  25  26
ATOM     26  N   LYS A   1       0.000  15.208   6.483  0.00  0.00    -0.238 NA
ATOM     27  H   LYS A   1       0.668  15.779   5.926  0.00  0.00    +0.142 HD
ENDBRANCH  25  26
BRANCH  25  28
ATOM     28  CB  LYS A   1       1.050  14.195   8.412  0.00  0.00    +0.026 C 
BRANCH  28  29
ATOM     29  CG  LYS A   1       1.135  13.960   9.898  0.00  0.00    -0.000 C 
BRANCH  29  30
ATOM     30  CD  LYS A   1       2.107  12.874  10.253  0.00  0.00    -0.024 C 
BRANCH  30  31
ATOM     31  CE  LYS A   1       2.407  12.663  11.709  0.00  0.00    -0.086 C 
BRANCH  31  32
ATOM     32  NZ  LYS A   1       1.460  11.728  12.334  0.00  0.00    +0.380 N 
ATOM     33  HZ1 LYS A   1       1.703  11.610  13.338  0.00  0.00    -0.089 HD
ATOM     34  HZ2 LYS A   1       0.495  12.107  12.251  0.00  0.00    -0.089 HD
ATOM     35  HZ3 LYS A   1       1.515  10.808  11.853  0.00  0.00    -0.089 HD
ENDBRANCH  31  32
ENDBRANCH  30  31
ENDBRANCH  29  30
ENDBRANCH  28  29
ENDBRANCH  25  28
ENDBRANCH  21  25
ENDBRANCH  20  22
BRANCH  20  36
ATOM     36  CB  MET A   2      -0.406  19.251  10.576  0.00  0.00    +0.041 C 
BRANCH  36  37
ATOM     37  CG  MET A   2      -1.173  19.939   9.470  0.00  0.00    +0.060 C 
BRANCH  37  38
ATOM     38  SD  MET A   2      -0.232  21.337   8.816  0.00  0.00    -0.139 S 
ATOM     39  CE  MET A   2      -0.898  22.692   9.846  0.00  0.00    +0.069 C 
ENDBRANCH  37  38
ENDBRANCH  36  37
ENDBRANCH  20  36
ENDBRANCH  16  20
ENDBRANCH  15  18
BRANCH  15  40
ATOM     40  CB  ILE A   3       4.782  17.356  12.287  0.00  0.00    +0.027 C 
ATOM     41  CG2 ILE A   3       4.346  15.946  11.870  0.00  0.00    +0.002 C 
BRANCH  40  42
ATOM     42  CG1 ILE A   3       5.697  17.971  11.235  0.00  0.00    +0.002 C 
ATOM     43  CD1 ILE A   3       7.008  17.230  11.004  0.00  0.00    +0.000 C 
ENDBRANCH  40  42
ENDBRANCH  15  40
ENDBRANCH  11  15
ENDBRANCH  10  12
ENDBRANCH   6  10
ENDBRANCH   5   8
ENDBRANCH   1   5
BRANCH   2  44
ATOM     44  CA  ILE A   6       8.887  25.385  18.132  0.00  0.00    +0.149 C 
BRANCH  44  45
ATOM     45  C   ILE A   6       8.569  26.175  16.884  0.00  0.00    +0.241 C 
ATOM     46  N   GLY A   7       7.821  27.293  16.997  0.00  0.00    -0.295 N 
ATOM     47  H   GLY A   7       7.484  27.599  17.932  0.00  0.00    +0.150 HD
ATOM     48  O   ILE A   6       8.982  25.794  15.803  0.00  0.00    -0.273 OA
BRANCH  46  49
ATOM     49  CA  GLY A   7       7.489  28.061  15.832  0.00  0.00    +0.176 C 
BRANCH  49  50
ATOM     50  C   GLY A   7       6.249  27.569  15.129  0.00  0.00    +0.243 C 
ATOM     51  N   GLY A   8       5.627  26.489  15.544  0.00  0.00    -0.295 N 
ATOM     52  H   GLY A   8       6.059  25.905  16.288  0.00  0.00    +0.150 HD
ATOM     53  O   GLY A   7       5.814  28.158  14.161  0.00  0.00    -0.273 OA
BRANCH  51  54
ATOM     54  CA  GLY A   8       4.359  26.101  14.987  0.00  0.00    +0.176 C 
BRANCH  54  55
ATOM     55  C   GLY A   8       4.408  24.860  14.111  0.00  0.00    +0.243 C 
ATOM     56  O   GLY A   8       5.290  24.035  14.273  0.00  0.00    -0.273 OA
ATOM     57  N   PHE A   9       3.452  24.729  13.192  0.00  0.00    -0.297 N 
ATOM     58  H   PHE A   9       2.803  25.525  13.031  0.00  0.00    +0.150 HD
BRANCH  57  59
ATOM     59  CA  PHE A   9       3.280  23.526  12.410  0.00  0.00    +0.153 C 
BRANCH  59  60
ATOM     60  C   PHE A   9       3.690  23.676  10.958  0.00  0.00    +0.241 C 
ATOM     61  N   ILE A  10       4.111  22.574  10.388  0.00  0.00    -0.298 N 
ATOM     62  H   ILE A  10       4.306  21.746  10.986  0.00  0.00    +0.150 HD
ATOM     63  O   PHE A   9       3.602  24.774  10.374  0.00  0.00    -0.273 OA
BRANCH  61  64
ATOM     64  CA  ILE A  10       4.317  22.463   8.947  0.00  0.00    +0.137 C 
BRANCH  64  65
ATOM     65  CB  ILE A  10       5.791  22.295   8.538  0.00  0.00    +0.026 C 
ATOM     66  CG2 ILE A  10       6.541  23.573   8.901  0.00  0.00    +0.002 C 
BRANCH  65  67
ATOM     67  CG1 ILE A  10       6.450  21.054   9.106  0.00  0.00    +0.002 C 
ATOM     68  CD1 ILE A  10       7.838  20.758   8.479  0.00  0.00    +0.000 C 
ENDBRANCH  65  67
ENDBRANCH  64  65
BRANCH  64  69
ATOM     69  C   ILE A  10       3.530  21.280   8.392  0.00  0.00    +0.227 C 
ATOM     70  O   ILE A  10       3.287  20.290   9.107  0.00  0.00    -0.286 OA
ENDBRANCH  64  69
ENDBRANCH  61  64
ENDBRANCH  59  60
BRANCH  59  71
ATOM     71  CB  PHE A   9       1.809  23.104  12.436  0.00  0.00    +0.055 C 
BRANCH  71  72
ATOM     72  CG  PHE A   9       1.357  22.503  13.749  0.00  0.00    -0.020 A 
ATOM     73  CD2 PHE A   9       1.106  23.331  14.826  0.00  0.00    -0.004 A 
ATOM     74  CE2 PHE A   9       0.717  22.790  16.008  0.00  0.00    -0.000 A 
ATOM     75  CZ  PHE A   9       0.531  21.430  16.143  0.00  0.00    -0.000 A 
ATOM     76  CE1 PHE A   9       0.782  20.575  15.073  0.00  0.00    -0.000 A 
ATOM     77  CD1 PHE A   9       1.151  21.146  13.869  0.00  0.00    -0.004 A 
ENDBRANCH  71  72
ENDBRANCH  59  71
ENDBRANCH  57  59
ENDBRANCH  54  55
ENDBRANCH  51  54
ENDBRANCH  49  50
ENDBRANCH  46  49
ENDBRANCH  44  45
BRANCH  44  78
ATOM     78  CB  ILE A   6      10.273  25.606  18.750  0.00  0.00    +0.027 C 
ATOM     79  CG2 ILE A   6      10.744  27.038  18.576  0.00  0.00    +0.002 C 
BRANCH  78  80
ATOM     80  CG1 ILE A   6      10.335  25.236  20.248  0.00  0.00    +0.002 C 
ATOM     81  CD1 ILE A   6      11.643  25.294  20.936  0.00  0.00    +0.000 C 
ENDBRANCH  78  80
ENDBRANCH  44  78
ENDBRANCH   2  44
TORSDOF 36
REMARK  Name = ../refined-set-2016/4kb9/4kb9_pocket.pdb
REMARK  229 active torsions:
REMARK  status: ('A' for Active; 'I' for Inactive)
REMARK    1  A    between atoms: _1  and  _3
REMARK    2  A    between atoms: _3  and  _4
REMARK    3  A    between atoms: _3  and  _6
REMARK    4  A    between atoms: _6  and  _7
REMARK    5  A    between atoms: _7  and  _8
REMARK    6  A    between atoms: _8  and  _9
REMARK    7  A    between atoms: _18  and  _20
REMARK    8  A    between atoms: _20  and  _21
REMARK    9  A    between atoms: _20  and  _23
REMARK   10  A    between atoms: _23  and  _24
REMARK   11  A    between atoms: _27  and  _29
REMARK   12  A    between atoms: _29  and  _30
REMARK   13  A    between atoms: _29  and  _32
REMARK   14  A    between atoms: _32  and  _33
REMARK   15  A    between atoms: _36  and  _38
REMARK   16  A    between atoms: _38  and  _39
REMARK   17  A    between atoms: _38  and  _41
REMARK   18  A    between atoms: _41  and  _42
REMARK   19  A    between atoms: _45  and  _47
REMARK   20  A    between atoms: _47  and  _48
REMARK   21  A    between atoms: _47  and  _50
REMARK   22  A    between atoms: _50  and  _51
REMARK   23  A    between atoms: _54  and  _56
REMARK   24  A    between atoms: _56  and  _57
REMARK   25  A    between atoms: _59  and  _61
REMARK   26  A    between atoms: _61  and  _62
REMARK   27  A    between atoms: _65  and  _67
REMARK   28  A    between atoms: _67  and  _68
REMARK   29  A    between atoms: _67  and  _70
REMARK   30  A    between atoms: _70  and  _71
REMARK   31  A    between atoms: _74  and  _76
REMARK   32  A    between atoms: _76  and  _77
REMARK   33  A    between atoms: _76  and  _79
REMARK   34  A    between atoms: _79  and  _80
REMARK   35  A    between atoms: _83  and  _85
REMARK   36  A    between atoms: _85  and  _86
REMARK   37  A    between atoms: _85  and  _88
REMARK   38  A    between atoms: _88  and  _89
REMARK   39  A    between atoms: _92  and  _94
REMARK   40  A    between atoms: _94  and  _95
REMARK   41  A    between atoms: _94  and  _97
REMARK   42  A    between atoms: _100  and  _102
REMARK   43  A    between atoms: _102  and  _103
REMARK   44  A    between atoms: _102  and  _105
REMARK   45  A    between atoms: _105  and  _106
REMARK   46  A    between atoms: _106  and  _107
REMARK   47  A    between atoms: _107  and  _108
REMARK   48  A    between atoms: _108  and  _109
REMARK   49  A    between atoms: _113  and  _115
REMARK   50  A    between atoms: _115  and  _116
REMARK   51  A    between atoms: _115  and  _118
REMARK   52  A    between atoms: _118  and  _119
REMARK   53  A    between atoms: _119  and  _120
REMARK   54  A    between atoms: _122  and  _124
REMARK   55  A    between atoms: _124  and  _125
REMARK   56  A    between atoms: _124  and  _127
REMARK   57  A    between atoms: _127  and  _128
REMARK   58  A    between atoms: _131  and  _133
REMARK   59  A    between atoms: _133  and  _134
REMARK   60  A    between atoms: _136  and  _138
REMARK   61  A    between atoms: _138  and  _139
REMARK   62  A    between atoms: _141  and  _143
REMARK   63  A    between atoms: _143  and  _144
REMARK   64  A    between atoms: _143  and  _146
REMARK   65  A    between atoms: _146  and  _147
REMARK   66  A    between atoms: _150  and  _152
REMARK   67  A    between atoms: _152  and  _153
REMARK   68  A    between atoms: _155  and  _157
REMARK   69  A    between atoms: _157  and  _158
REMARK   70  A    between atoms: _160  and  _162
REMARK   71  A    between atoms: _162  and  _163
REMARK   72  A    between atoms: _162  and  _165
REMARK   73  A    between atoms: _165  and  _166
REMARK   74  A    between atoms: _172  and  _174
REMARK   75  A    between atoms: _174  and  _175
REMARK   76  A    between atoms: _174  and  _177
REMARK   77  A    between atoms: _177  and  _178
REMARK   78  A    between atoms: _181  and  _183
REMARK   79  A    between atoms: _183  and  _184
REMARK   80  A    between atoms: _183  and  _186
REMARK   81  A    between atoms: _189  and  _191
REMARK   82  A    between atoms: _191  and  _192
REMARK   83  A    between atoms: _191  and  _194
REMARK   84  A    between atoms: _194  and  _195
REMARK   85  A    between atoms: _198  and  _200
REMARK   86  A    between atoms: _200  and  _201
REMARK   87  A    between atoms: _200  and  _203
REMARK   88  A    between atoms: _203  and  _204
REMARK   89  A    between atoms: _208  and  _209
REMARK   90  A    between atoms: _214  and  _216
REMARK   91  A    between atoms: _216  and  _217
REMARK   92  A    between atoms: _216  and  _219
REMARK   93  A    between atoms: _222  and  _224
REMARK   94  A    between atoms: _224  and  _225
REMARK   95  A    between atoms: _224  and  _227
REMARK   96  A    between atoms: _227  and  _228
REMARK   97  A    between atoms: _233  and  _235
REMARK   98  A    between atoms: _235  and  _236
REMARK   99  A    between atoms: _235  and  _238
REMARK  100  A    between atoms: _238  and  _239
REMARK  101  A    between atoms: _242  and  _244
REMARK  102  A    between atoms: _244  and  _245
REMARK  103  A    between atoms: _247  and  _249
REMARK  104  A    between atoms: _249  and  _250
REMARK  105  A    between atoms: _249  and  _252
REMARK  106  A    between atoms: _252  and  _253
REMARK  107  A    between atoms: _253  and  _254
REMARK  108  A    between atoms: _254  and  _255
REMARK  109  A    between atoms: _264  and  _266
REMARK  110  A    between atoms: _266  and  _267
REMARK  111  A    between atoms: _266  and  _269
REMARK  112  A    between atoms: _269  and  _270
REMARK  113  A    between atoms: _275  and  _277
REMARK  114  A    between atoms: _277  and  _278
REMARK  115  A    between atoms: _277  and  _280
REMARK  116  A    between atoms: _280  and  _281
REMARK  117  A    between atoms: _281  and  _282
REMARK  118  A    between atoms: _282  and  _283
REMARK  119  A    between atoms: _292  and  _294
REMARK  120  A    between atoms: _294  and  _295
REMARK  121  A    between atoms: _294  and  _297
REMARK  122  A    between atoms: _297  and  _298
REMARK  123  A    between atoms: _301  and  _303
REMARK  124  A    between atoms: _303  and  _304
REMARK  125  A    between atoms: _303  and  _306
REMARK  126  A    between atoms: _306  and  _307
REMARK  127  A    between atoms: _310  and  _312
REMARK  128  A    between atoms: _312  and  _313
REMARK  129  A    between atoms: _312  and  _315
REMARK  130  A    between atoms: _315  and  _316
REMARK  131  A    between atoms: _319  and  _321
REMARK  132  A    between atoms: _321  and  _322
REMARK  133  A    between atoms: _321  and  _324
REMARK  134  A    between atoms: _324  and  _325
REMARK  135  A    between atoms: _328  and  _330
REMARK  136  A    between atoms: _330  and  _331
REMARK  137  A    between atoms: _333  and  _335
REMARK  138  A    between atoms: _335  and  _336
REMARK  139  A    between atoms: _339  and  _341
REMARK  140  A    between atoms: _341  and  _342
REMARK  141  A    between atoms: _341  and  _344
REMARK  142  A    between atoms: _344  and  _345
REMARK  143  A    between atoms: _348  and  _350
REMARK  144  A    between atoms: _350  and  _351
REMARK  145  A    between atoms: _350  and  _353
REMARK  146  A    between atoms: _353  and  _354
REMARK  147  A    between atoms: _357  and  _359
REMARK  148  A    between atoms: _359  and  _360
REMARK  149  A    between atoms: _359  and  _362
REMARK  150  A    between atoms: _362  and  _363
REMARK  151  A    between atoms: _366  and  _368
REMARK  152  A    between atoms: _368  and  _369
REMARK  153  A    between atoms: _368  and  _371
REMARK  154  A    between atoms: _374  and  _376
REMARK  155  A    between atoms: _376  and  _377
REMARK  156  A    between atoms: _376  and  _379
REMARK  157  A    between atoms: _379  and  _380
REMARK  158  A    between atoms: _380  and  _381
REMARK  159  A    between atoms: _381  and  _382
REMARK  160  A    between atoms: _382  and  _383
REMARK  161  A    between atoms: _387  and  _389
REMARK  162  A    between atoms: _389  and  _390
REMARK  163  A    between atoms: _389  and  _392
REMARK  164  A    between atoms: _392  and  _393
REMARK  165  A    between atoms: _393  and  _394
REMARK  166  A    between atoms: _396  and  _398
REMARK  167  A    between atoms: _398  and  _399
REMARK  168  A    between atoms: _398  and  _401
REMARK  169  A    between atoms: _401  and  _402
REMARK  170  A    between atoms: _405  and  _407
REMARK  171  A    between atoms: _407  and  _408
REMARK  172  A    between atoms: _410  and  _412
REMARK  173  A    between atoms: _412  and  _413
REMARK  174  A    between atoms: _415  and  _417
REMARK  175  A    between atoms: _417  and  _418
REMARK  176  A    between atoms: _417  and  _420
REMARK  177  A    between atoms: _420  and  _421
REMARK  178  A    between atoms: _424  and  _426
REMARK  179  A    between atoms: _426  and  _427
REMARK  180  A    between atoms: _429  and  _431
REMARK  181  A    between atoms: _431  and  _432
REMARK  182  A    between atoms: _434  and  _436
REMARK  183  A    between atoms: _436  and  _437
REMARK  184  A    between atoms: _436  and  _439
REMARK  185  A    between atoms: _439  and  _440
REMARK  186  A    between atoms: _446  and  _448
REMARK  187  A    between atoms: _448  and  _449
REMARK  188  A    between atoms: _448  and  _451
REMARK  189  A    between atoms: _451  and  _452
REMARK  190  A    between atoms: _455  and  _457
REMARK  191  A    between atoms: _457  and  _458
REMARK  192  A    between atoms: _457  and  _460
REMARK  193  A    between atoms: _463  and  _465
REMARK  194  A    between atoms: _465  and  _466
REMARK  195  A    between atoms: _465  and  _468
REMARK  196  A    between atoms: _468  and  _469
REMARK  197  A    between atoms: _473  and  _474
REMARK  198  A    between atoms: _479  and  _481
REMARK  199  A    between atoms: _481  and  _482
REMARK  200  A    between atoms: _481  and  _484
REMARK  201  A    between atoms: _484  and  _485
REMARK  202  A    between atoms: _489  and  _490
REMARK  203  A    between atoms: _495  and  _497
REMARK  204  A    between atoms: _497  and  _498
REMARK  205  A    between atoms: _497  and  _500
REMARK  206  A    between atoms: _503  and  _505
REMARK  207  A    between atoms: _505  and  _506
REMARK  208  A    between atoms: _505  and  _508
REMARK  209  A    between atoms: _508  and  _509
REMARK  210  A    between atoms: _514  and  _516
REMARK  211  A    between atoms: _516  and  _517
REMARK  212  A    between atoms: _516  and  _519
REMARK  213  A    between atoms: _519  and  _520
REMARK  214  A    between atoms: _523  and  _525
REMARK  215  A    between atoms: _525  and  _526
REMARK  216  A    between atoms: _525  and  _528
REMARK  217  A    between atoms: _528  and  _529
REMARK  218  A    between atoms: _532  and  _534
REMARK  219  A    between atoms: _534  and  _535
REMARK  220  A    between atoms: _537  and  _539
REMARK  221  A    between atoms: _539  and  _540
REMARK  222  A    between atoms: _539  and  _542
REMARK  223  A    between atoms: _542  and  _543
REMARK  224  A    between atoms: _543  and  _544
REMARK  225  A    between atoms: _544  and  _545
REMARK  226  A    between atoms: _554  and  _556
REMARK  227  A    between atoms: _556  and  _557
REMARK  228  A    between atoms: _556  and  _559
REMARK  229  A    between atoms: _559  and  _560
REMARK                            x       y       z     vdW  Elec       q    Type
REMARK                         _______ _______ _______ _____ _____    ______ ____
ROOT
ATOM      1  CA  VAL A   1       4.361  17.157   5.354  0.00  0.00    +0.133 C 
ENDROOT
BRANCH   1   2
ATOM      2  CB  VAL A   1       5.252  16.542   6.438  0.00  0.00    +0.023 C 
ATOM      3  CG2 VAL A   1       4.453  15.803   7.507  0.00  0.00    +0.002 C 
ATOM      4  CG1 VAL A   1       6.107  17.619   7.114  0.00  0.00    +0.002 C 
ENDBRANCH   1   2
BRANCH   1   5
ATOM      5  N   VAL A   1       3.426  18.112   5.945  0.00  0.00    -0.239 NA
ATOM      6  H   VAL A   1       2.633  17.759   6.518  0.00  0.00    +0.142 HD
ENDBRANCH   1   5
BRANCH   1   7
ATOM      7  C   VAL A   1       3.593  16.060   4.650  0.00  0.00    +0.224 C 
ATOM      8  O   VAL A   1       2.388  15.904   4.808  0.00  0.00    -0.287 OA
ENDBRANCH   1   7
TORSDOF 3
REMARK  Name = ../refined-set-2016/4kb9/4kb9_pocket.pdb
REMARK  229 active torsions:
REMARK  status: ('A' for Active; 'I' for Inactive)
REMARK    1  A    between atoms: _1  and  _3
REMARK    2  A    between atoms: _3  and  _4
REMARK    3  A    between atoms: _3  and  _6
REMARK    4  A    between atoms: _6  and  _7
REMARK    5  A    between atoms: _7  and  _8
REMARK    6  A    between atoms: _8  and  _9
REMARK    7  A    between atoms: _18  and  _20
REMARK    8  A    between atoms: _20  and  _21
REMARK    9  A    between atoms: _20  and  _23
REMARK   10  A    between atoms: _23  and  _24
REMARK   11  A    between atoms: _27  and  _29
REMARK   12  A    between atoms: _29  and  _30
REMARK   13  A    between atoms: _29  and  _32
REMARK   14  A    between atoms: _32  and  _33
REMARK   15  A    between atoms: _36  and  _38
REMARK   16  A    between atoms: _38  and  _39
REMARK   17  A    between atoms: _38  and  _41
REMARK   18  A    between atoms: _41  and  _42
REMARK   19  A    between atoms: _45  and  _47
REMARK   20  A    between atoms: _47  and  _48
REMARK   21  A    between atoms: _47  and  _50
REMARK   22  A    between atoms: _50  and  _51
REMARK   23  A    between atoms: _54  and  _56
REMARK   24  A    between atoms: _56  and  _57
REMARK   25  A    between atoms: _59  and  _61
REMARK   26  A    between atoms: _61  and  _62
REMARK   27  A    between atoms: _65  and  _67
REMARK   28  A    between atoms: _67  and  _68
REMARK   29  A    between atoms: _67  and  _70
REMARK   30  A    between atoms: _70  and  _71
REMARK   31  A    between atoms: _74  and  _76
REMARK   32  A    between atoms: _76  and  _77
REMARK   33  A    between atoms: _76  and  _79
REMARK   34  A    between atoms: _79  and  _80
REMARK   35  A    between atoms: _83  and  _85
REMARK   36  A    between atoms: _85  and  _86
REMARK   37  A    between atoms: _85  and  _88
REMARK   38  A    between atoms: _88  and  _89
REMARK   39  A    between atoms: _92  and  _94
REMARK   40  A    between atoms: _94  and  _95
REMARK   41  A    between atoms: _94  and  _97
REMARK   42  A    between atoms: _100  and  _102
REMARK   43  A    between atoms: _102  and  _103
REMARK   44  A    between atoms: _102  and  _105
REMARK   45  A    between atoms: _105  and  _106
REMARK   46  A    between atoms: _106  and  _107
REMARK   47  A    between atoms: _107  and  _108
REMARK   48  A    between atoms: _108  and  _109
REMARK   49  A    between atoms: _113  and  _115
REMARK   50  A    between atoms: _115  and  _116
REMARK   51  A    between atoms: _115  and  _118
REMARK   52  A    between atoms: _118  and  _119
REMARK   53  A    between atoms: _119  and  _120
REMARK   54  A    between atoms: _122  and  _124
REMARK   55  A    between atoms: _124  and  _125
REMARK   56  A    between atoms: _124  and  _127
REMARK   57  A    between atoms: _127  and  _128
REMARK   58  A    between atoms: _131  and  _133
REMARK   59  A    between atoms: _133  and  _134
REMARK   60  A    between atoms: _136  and  _138
REMARK   61  A    between atoms: _138  and  _139
REMARK   62  A    between atoms: _141  and  _143
REMARK   63  A    between atoms: _143  and  _144
REMARK   64  A    between atoms: _143  and  _146
REMARK   65  A    between atoms: _146  and  _147
REMARK   66  A    between atoms: _150  and  _152
REMARK   67  A    between atoms: _152  and  _153
REMARK   68  A    between atoms: _155  and  _157
REMARK   69  A    between atoms: _157  and  _158
REMARK   70  A    between atoms: _160  and  _162
REMARK   71  A    between atoms: _162  and  _163
REMARK   72  A    between atoms: _162  and  _165
REMARK   73  A    between atoms: _165  and  _166
REMARK   74  A    between atoms: _172  and  _174
REMARK   75  A    between atoms: _174  and  _175
REMARK   76  A    between atoms: _174  and  _177
REMARK   77  A    between atoms: _177  and  _178
REMARK   78  A    between atoms: _181  and  _183
REMARK   79  A    between atoms: _183  and  _184
REMARK   80  A    between atoms: _183  and  _186
REMARK   81  A    between atoms: _189  and  _191
REMARK   82  A    between atoms: _191  and  _192
REMARK   83  A    between atoms: _191  and  _194
REMARK   84  A    between atoms: _194  and  _195
REMARK   85  A    between atoms: _198  and  _200
REMARK   86  A    between atoms: _200  and  _201
REMARK   87  A    between atoms: _200  and  _203
REMARK   88  A    between atoms: _203  and  _204
REMARK   89  A    between atoms: _208  and  _209
REMARK   90  A    between atoms: _214  and  _216
REMARK   91  A    between atoms: _216  and  _217
REMARK   92  A    between atoms: _216  and  _219
REMARK   93  A    between atoms: _222  and  _224
REMARK   94  A    between atoms: _224  and  _225
REMARK   95  A    between atoms: _224  and  _227
REMARK   96  A    between atoms: _227  and  _228
REMARK   97  A    between atoms: _233  and  _235
REMARK   98  A    between atoms: _235  and  _236
REMARK   99  A    between atoms: _235  and  _238
REMARK  100  A    between atoms: _238  and  _239
REMARK  101  A    between atoms: _242  and  _244
REMARK  102  A    between atoms: _244  and  _245
REMARK  103  A    between atoms: _247  and  _249
REMARK  104  A    between atoms: _249  and  _250
REMARK  105  A    between atoms: _249  and  _252
REMARK  106  A    between atoms: _252  and  _253
REMARK  107  A    between atoms: _253  and  _254
REMARK  108  A    between atoms: _254  and  _255
REMARK  109  A    between atoms: _264  and  _266
REMARK  110  A    between atoms: _266  and  _267
REMARK  111  A    between atoms: _266  and  _269
REMARK  112  A    between atoms: _269  and  _270
REMARK  113  A    between atoms: _275  and  _277
REMARK  114  A    between atoms: _277  and  _278
REMARK  115  A    between atoms: _277  and  _280
REMARK  116  A    between atoms: _280  and  _281
REMARK  117  A    between atoms: _281  and  _282
REMARK  118  A    between atoms: _282  and  _283
REMARK  119  A    between atoms: _292  and  _294
REMARK  120  A    between atoms: _294  and  _295
REMARK  121  A    between atoms: _294  and  _297
REMARK  122  A    between atoms: _297  and  _298
REMARK  123  A    between atoms: _301  and  _303
REMARK  124  A    between atoms: _303  and  _304
REMARK  125  A    between atoms: _303  and  _306
REMARK  126  A    between atoms: _306  and  _307
REMARK  127  A    between atoms: _310  and  _312
REMARK  128  A    between atoms: _312  and  _313
REMARK  129  A    between atoms: _312  and  _315
REMARK  130  A    between atoms: _315  and  _316
REMARK  131  A    between atoms: _319  and  _321
REMARK  132  A    between atoms: _321  and  _322
REMARK  133  A    between atoms: _321  and  _324
REMARK  134  A    between atoms: _324  and  _325
REMARK  135  A    between atoms: _328  and  _330
REMARK  136  A    between atoms: _330  and  _331
REMARK  137  A    between atoms: _333  and  _335
REMARK  138  A    between atoms: _335  and  _336
REMARK  139  A    between atoms: _339  and  _341
REMARK  140  A    between atoms: _341  and  _342
REMARK  141  A    between atoms: _341  and  _344
REMARK  142  A    between atoms: _344  and  _345
REMARK  143  A    between atoms: _348  and  _350
REMARK  144  A    between atoms: _350  and  _351
REMARK  145  A    between atoms: _350  and  _353
REMARK  146  A    between atoms: _353  and  _354
REMARK  147  A    between atoms: _357  and  _359
REMARK  148  A    between atoms: _359  and  _360
REMARK  149  A    between atoms: _359  and  _362
REMARK  150  A    between atoms: _362  and  _363
REMARK  151  A    between atoms: _366  and  _368
REMARK  152  A    between atoms: _368  and  _369
REMARK  153  A    between atoms: _368  and  _371
REMARK  154  A    between atoms: _374  and  _376
REMARK  155  A    between atoms: _376  and  _377
REMARK  156  A    between atoms: _376  and  _379
REMARK  157  A    between atoms: _379  and  _380
REMARK  158  A    between atoms: _380  and  _381
REMARK  159  A    between atoms: _381  and  _382
REMARK  160  A    between atoms: _382  and  _383
REMARK  161  A    between atoms: _387  and  _389
REMARK  162  A    between atoms: _389  and  _390
REMARK  163  A    between atoms: _389  and  _392
REMARK  164  A    between atoms: _392  and  _393
REMARK  165  A    between atoms: _393  and  _394
REMARK  166  A    between atoms: _396  and  _398
REMARK  167  A    between atoms: _398  and  _399
REMARK  168  A    between atoms: _398  and  _401
REMARK  169  A    between atoms: _401  and  _402
REMARK  170  A    between atoms: _405  and  _407
REMARK  171  A    between atoms: _407  and  _408
REMARK  172  A    between atoms: _410  and  _412
REMARK  173  A    between atoms: _412  and  _413
REMARK  174  A    between atoms: _415  and  _417
REMARK  175  A    between atoms: _417  and  _418
REMARK  176  A    between atoms: _417  and  _420
REMARK  177  A    between atoms: _420  and  _421
REMARK  178  A    between atoms: _424  and  _426
REMARK  179  A    between atoms: _426  and  _427
REMARK  180  A    between atoms: _429  and  _431
REMARK  181  A    between atoms: _431  and  _432
REMARK  182  A    between atoms: _434  and  _436
REMARK  183  A    between atoms: _436  and  _437
REMARK  184  A    between atoms: _436  and  _439
REMARK  185  A    between atoms: _439  and  _440
REMARK  186  A    between atoms: _446  and  _448
REMARK  187  A    between atoms: _448  and  _449
REMARK  188  A    between atoms: _448  and  _451
REMARK  189  A    between atoms: _451  and  _452
REMARK  190  A    between atoms: _455  and  _457
REMARK  191  A    between atoms: _457  and  _458
REMARK  192  A    between atoms: _457  and  _460
REMARK  193  A    between atoms: _463  and  _465
REMARK  194  A    between atoms: _465  and  _466
REMARK  195  A    between atoms: _465  and  _468
REMARK  196  A    between atoms: _468  and  _469
REMARK  197  A    between atoms: _473  and  _474
REMARK  198  A    between atoms: _479  and  _481
REMARK  199  A    between atoms: _481  and  _482
REMARK  200  A    between atoms: _481  and  _484
REMARK  201  A    between atoms: _484  and  _485
REMARK  202  A    between atoms: _489  and  _490
REMARK  203  A    between atoms: _495  and  _497
REMARK  204  A    between atoms: _497  and  _498
REMARK  205  A    between atoms: _497  and  _500
REMARK  206  A    between atoms: _503  and  _505
REMARK  207  A    between atoms: _505  and  _506
REMARK  208  A    between atoms: _505  and  _508
REMARK  209  A    between atoms: _508  and  _509
REMARK  210  A    between atoms: _514  and  _516
REMARK  211  A    between atoms: _516  and  _517
REMARK  212  A    between atoms: _516  and  _519
REMARK  213  A    between atoms: _519  and  _520
REMARK  214  A    between atoms: _523  and  _525
REMARK  215  A    between atoms: _525  and  _526
REMARK  216  A    between atoms: _525  and  _528
REMARK  217  A    between atoms: _528  and  _529
REMARK  218  A    between atoms: _532  and  _534
REMARK  219  A    between atoms: _534  and  _535
REMARK  220  A    between atoms: _537  and  _539
REMARK  221  A    between atoms: _539  and  _540
REMARK  222  A    between atoms: _539  and  _542
REMARK  223  A    between atoms: _542  and  _543
REMARK  224  A    between atoms: _543  and  _544
REMARK  225  A    between atoms: _544  and  _545
REMARK  226  A    between atoms: _554  and  _556
REMARK  227  A    between atoms: _556  and  _557
REMARK  228  A    between atoms: _556  and  _559
REMARK  229  A    between atoms: _559  and  _560
REMARK                            x       y       z     vdW  Elec       q    Type
REMARK                         _______ _______ _______ _____ _____    ______ ____
ROOT
ATOM      1  CA  LEU A   1       7.789  12.496   6.656  0.00  0.00    +0.133 C 
ENDROOT
BRANCH   1   2
ATOM      2  N   LEU A   1       8.533  11.311   6.995  0.00  0.00    -0.239 NA
ATOM      3  H   LEU A   1       9.204  11.347   7.789  0.00  0.00    +0.142 HD
ENDBRANCH   1   2
BRANCH   1   4
ATOM      4  C   LEU A   1       8.623  13.412   5.798  0.00  0.00    +0.224 C 
ATOM      5  O   LEU A   1       9.803  13.601   6.100  0.00  0.00    -0.287 OA
ENDBRANCH   1   4
BRANCH   1   6
ATOM      6  CB  LEU A   1       7.377  13.238   7.928  0.00  0.00    +0.025 C 
BRANCH   6   7
ATOM      7  CG  LEU A   1       6.686  12.354   8.976  0.00  0.00    +0.002 C 
ATOM      8  CD2 LEU A   1       6.310  13.199  10.197  0.00  0.00    +0.000 C 
ATOM      9  CD1 LEU A   1       5.491  11.628   8.404  0.00  0.00    +0.000 C 
ENDBRANCH   6   7
ENDBRANCH   1   6
TORSDOF 4
REMARK  Name = ../refined-set-2016/4kb9/4kb9_pocket.pdb
REMARK  229 active torsions:
REMARK  status: ('A' for Active; 'I' for Inactive)
REMARK    1  A    between atoms: _1  and  _3
REMARK    2  A    between atoms: _3  and  _4
REMARK    3  A    between atoms: _3  and  _6
REMARK    4  A    between atoms: _6  and  _7
REMARK    5  A    between atoms: _7  and  _8
REMARK    6  A    between atoms: _8  and  _9
REMARK    7  A    between atoms: _18  and  _20
REMARK    8  A    between atoms: _20  and  _21
REMARK    9  A    between atoms: _20  and  _23
REMARK   10  A    between atoms: _23  and  _24
REMARK   11  A    between atoms: _27  and  _29
REMARK   12  A    between atoms: _29  and  _30
REMARK   13  A    between atoms: _29  and  _32
REMARK   14  A    between atoms: _32  and  _33
REMARK   15  A    between atoms: _36  and  _38
REMARK   16  A    between atoms: _38  and  _39
REMARK   17  A    between atoms: _38  and  _41
REMARK   18  A    between atoms: _41  and  _42
REMARK   19  A    between atoms: _45  and  _47
REMARK   20  A    between atoms: _47  and  _48
REMARK   21  A    between atoms: _47  and  _50
REMARK   22  A    between atoms: _50  and  _51
REMARK   23  A    between atoms: _54  and  _56
REMARK   24  A    between atoms: _56  and  _57
REMARK   25  A    between atoms: _59  and  _61
REMARK   26  A    between atoms: _61  and  _62
REMARK   27  A    between atoms: _65  and  _67
REMARK   28  A    between atoms: _67  and  _68
REMARK   29  A    between atoms: _67  and  _70
REMARK   30  A    between atoms: _70  and  _71
REMARK   31  A    between atoms: _74  and  _76
REMARK   32  A    between atoms: _76  and  _77
REMARK   33  A    between atoms: _76  and  _79
REMARK   34  A    between atoms: _79  and  _80
REMARK   35  A    between atoms: _83  and  _85
REMARK   36  A    between atoms: _85  and  _86
REMARK   37  A    between atoms: _85  and  _88
REMARK   38  A    between atoms: _88  and  _89
REMARK   39  A    between atoms: _92  and  _94
REMARK   40  A    between atoms: _94  and  _95
REMARK   41  A    between atoms: _94  and  _97
REMARK   42  A    between atoms: _100  and  _102
REMARK   43  A    between atoms: _102  and  _103
REMARK   44  A    between atoms: _102  and  _105
REMARK   45  A    between atoms: _105  and  _106
REMARK   46  A    between atoms: _106  and  _107
REMARK   47  A    between atoms: _107  and  _108
REMARK   48  A    between atoms: _108  and  _109
REMARK   49  A    between atoms: _113  and  _115
REMARK   50  A    between atoms: _115  and  _116
REMARK   51  A    between atoms: _115  and  _118
REMARK   52  A    between atoms: _118  and  _119
REMARK   53  A    between atoms: _119  and  _120
REMARK   54  A    between atoms: _122  and  _124
REMARK   55  A    between atoms: _124  and  _125
REMARK   56  A    between atoms: _124  and  _127
REMARK   57  A    between atoms: _127  and  _128
REMARK   58  A    between atoms: _131  and  _133
REMARK   59  A    between atoms: _133  and  _134
REMARK   60  A    between atoms: _136  and  _138
REMARK   61  A    between atoms: _138  and  _139
REMARK   62  A    between atoms: _141  and  _143
REMARK   63  A    between atoms: _143  and  _144
REMARK   64  A    between atoms: _143  and  _146
REMARK   65  A    between atoms: _146  and  _147
REMARK   66  A    between atoms: _150  and  _152
REMARK   67  A    between atoms: _152  and  _153
REMARK   68  A    between atoms: _155  and  _157
REMARK   69  A    between atoms: _157  and  _158
REMARK   70  A    between atoms: _160  and  _162
REMARK   71  A    between atoms: _162  and  _163
REMARK   72  A    between atoms: _162  and  _165
REMARK   73  A    between atoms: _165  and  _166
REMARK   74  A    between atoms: _172  and  _174
REMARK   75  A    between atoms: _174  and  _175
REMARK   76  A    between atoms: _174  and  _177
REMARK   77  A    between atoms: _177  and  _178
REMARK   78  A    between atoms: _181  and  _183
REMARK   79  A    between atoms: _183  and  _184
REMARK   80  A    between atoms: _183  and  _186
REMARK   81  A    between atoms: _189  and  _191
REMARK   82  A    between atoms: _191  and  _192
REMARK   83  A    between atoms: _191  and  _194
REMARK   84  A    between atoms: _194  and  _195
REMARK   85  A    between atoms: _198  and  _200
REMARK   86  A    between atoms: _200  and  _201
REMARK   87  A    between atoms: _200  and  _203
REMARK   88  A    between atoms: _203  and  _204
REMARK   89  A    between atoms: _208  and  _209
REMARK   90  A    between atoms: _214  and  _216
REMARK   91  A    between atoms: _216  and  _217
REMARK   92  A    between atoms: _216  and  _219
REMARK   93  A    between atoms: _222  and  _224
REMARK   94  A    between atoms: _224  and  _225
REMARK   95  A    between atoms: _224  and  _227
REMARK   96  A    between atoms: _227  and  _228
REMARK   97  A    between atoms: _233  and  _235
REMARK   98  A    between atoms: _235  and  _236
REMARK   99  A    between atoms: _235  and  _238
REMARK  100  A    between atoms: _238  and  _239
REMARK  101  A    between atoms: _242  and  _244
REMARK  102  A    between atoms: _244  and  _245
REMARK  103  A    between atoms: _247  and  _249
REMARK  104  A    between atoms: _249  and  _250
REMARK  105  A    between atoms: _249  and  _252
REMARK  106  A    between atoms: _252  and  _253
REMARK  107  A    between atoms: _253  and  _254
REMARK  108  A    between atoms: _254  and  _255
REMARK  109  A    between atoms: _264  and  _266
REMARK  110  A    between atoms: _266  and  _267
REMARK  111  A    between atoms: _266  and  _269
REMARK  112  A    between atoms: _269  and  _270
REMARK  113  A    between atoms: _275  and  _277
REMARK  114  A    between atoms: _277  and  _278
REMARK  115  A    between atoms: _277  and  _280
REMARK  116  A    between atoms: _280  and  _281
REMARK  117  A    between atoms: _281  and  _282
REMARK  118  A    between atoms: _282  and  _283
REMARK  119  A    between atoms: _292  and  _294
REMARK  120  A    between atoms: _294  and  _295
REMARK  121  A    between atoms: _294  and  _297
REMARK  122  A    between atoms: _297  and  _298
REMARK  123  A    between atoms: _301  and  _303
REMARK  124  A    between atoms: _303  and  _304
REMARK  125  A    between atoms: _303  and  _306
REMARK  126  A    between atoms: _306  and  _307
REMARK  127  A    between atoms: _310  and  _312
REMARK  128  A    between atoms: _312  and  _313
REMARK  129  A    between atoms: _312  and  _315
REMARK  130  A    between atoms: _315  and  _316
REMARK  131  A    between atoms: _319  and  _321
REMARK  132  A    between atoms: _321  and  _322
REMARK  133  A    between atoms: _321  and  _324
REMARK  134  A    between atoms: _324  and  _325
REMARK  135  A    between atoms: _328  and  _330
REMARK  136  A    between atoms: _330  and  _331
REMARK  137  A    between atoms: _333  and  _335
REMARK  138  A    between atoms: _335  and  _336
REMARK  139  A    between atoms: _339  and  _341
REMARK  140  A    between atoms: _341  and  _342
REMARK  141  A    between atoms: _341  and  _344
REMARK  142  A    between atoms: _344  and  _345
REMARK  143  A    between atoms: _348  and  _350
REMARK  144  A    between atoms: _350  and  _351
REMARK  145  A    between atoms: _350  and  _353
REMARK  146  A    between atoms: _353  and  _354
REMARK  147  A    between atoms: _357  and  _359
REMARK  148  A    between atoms: _359  and  _360
REMARK  149  A    between atoms: _359  and  _362
REMARK  150  A    between atoms: _362  and  _363
REMARK  151  A    between atoms: _366  and  _368
REMARK  152  A    between atoms: _368  and  _369
REMARK  153  A    between atoms: _368  and  _371
REMARK  154  A    between atoms: _374  and  _376
REMARK  155  A    between atoms: _376  and  _377
REMARK  156  A    between atoms: _376  and  _379
REMARK  157  A    between atoms: _379  and  _380
REMARK  158  A    between atoms: _380  and  _381
REMARK  159  A    between atoms: _381  and  _382
REMARK  160  A    between atoms: _382  and  _383
REMARK  161  A    between atoms: _387  and  _389
REMARK  162  A    between atoms: _389  and  _390
REMARK  163  A    between atoms: _389  and  _392
REMARK  164  A    between atoms: _392  and  _393
REMARK  165  A    between atoms: _393  and  _394
REMARK  166  A    between atoms: _396  and  _398
REMARK  167  A    between atoms: _398  and  _399
REMARK  168  A    between atoms: _398  and  _401
REMARK  169  A    between atoms: _401  and  _402
REMARK  170  A    between atoms: _405  and  _407
REMARK  171  A    between atoms: _407  and  _408
REMARK  172  A    between atoms: _410  and  _412
REMARK  173  A    between atoms: _412  and  _413
REMARK  174  A    between atoms: _415  and  _417
REMARK  175  A    between atoms: _417  and  _418
REMARK  176  A    between atoms: _417  and  _420
REMARK  177  A    between atoms: _420  and  _421
REMARK  178  A    between atoms: _424  and  _426
REMARK  179  A    between atoms: _426  and  _427
REMARK  180  A    between atoms: _429  and  _431
REMARK  181  A    between atoms: _431  and  _432
REMARK  182  A    between atoms: _434  and  _436
REMARK  183  A    between atoms: _436  and  _437
REMARK  184  A    between atoms: _436  and  _439
REMARK  185  A    between atoms: _439  and  _440
REMARK  186  A    between atoms: _446  and  _448
REMARK  187  A    between atoms: _448  and  _449
REMARK  188  A    between atoms: _448  and  _451
REMARK  189  A    between atoms: _451  and  _452
REMARK  190  A    between atoms: _455  and  _457
REMARK  191  A    between atoms: _457  and  _458
REMARK  192  A    between atoms: _457  and  _460
REMARK  193  A    between atoms: _463  and  _465
REMARK  194  A    between atoms: _465  and  _466
REMARK  195  A    between atoms: _465  and  _468
REMARK  196  A    between atoms: _468  and  _469
REMARK  197  A    between atoms: _473  and  _474
REMARK  198  A    between atoms: _479  and  _481
REMARK  199  A    between atoms: _481  and  _482
REMARK  200  A    between atoms: _481  and  _484
REMARK  201  A    between atoms: _484  and  _485
REMARK  202  A    between atoms: _489  and  _490
REMARK  203  A    between atoms: _495  and  _497
REMARK  204  A    between atoms: _497  and  _498
REMARK  205  A    between atoms: _497  and  _500
REMARK  206  A    between atoms: _503  and  _505
REMARK  207  A    between atoms: _505  and  _506
REMARK  208  A    between atoms: _505  and  _508
REMARK  209  A    between atoms: _508  and  _509
REMARK  210  A    between atoms: _514  and  _516
REMARK  211  A    between atoms: _516  and  _517
REMARK  212  A    between atoms: _516  and  _519
REMARK  213  A    between atoms: _519  and  _520
REMARK  214  A    between atoms: _523  and  _525
REMARK  215  A    between atoms: _525  and  _526
REMARK  216  A    between atoms: _525  and  _528
REMARK  217  A    between atoms: _528  and  _529
REMARK  218  A    between atoms: _532  and  _534
REMARK  219  A    between atoms: _534  and  _535
REMARK  220  A    between atoms: _537  and  _539
REMARK  221  A    between atoms: _539  and  _540
REMARK  222  A    between atoms: _539  and  _542
REMARK  223  A    between atoms: _542  and  _543
REMARK  224  A    between atoms: _543  and  _544
REMARK  225  A    between atoms: _544  and  _545
REMARK  226  A    between atoms: _554  and  _556
REMARK  227  A    between atoms: _556  and  _557
REMARK  228  A    between atoms: _556  and  _559
REMARK  229  A    between atoms: _559  and  _560
REMARK                            x       y       z     vdW  Elec       q    Type
REMARK                         _______ _______ _______ _____ _____    ______ ____
ROOT
ATOM      1  CA  ILE A   6      15.852  14.783  11.387  0.00  0.00    +0.149 C 
ENDROOT
BRANCH   1   2
ATOM      2  C   ILE A   6      15.574  13.296  11.412  0.00  0.00    +0.241 C 
ATOM      3  N   ILE A   7      16.382  12.503  12.077  0.00  0.00    -0.297 N 
ATOM      4  H   ILE A   7      17.273  12.900  12.438  0.00  0.00    +0.150 HD
ATOM      5  O   ILE A   6      14.553  12.888  10.820  0.00  0.00    -0.273 OA
BRANCH   3   6
ATOM      6  CA  ILE A   7      16.098  11.084  12.340  0.00  0.00    +0.149 C 
BRANCH   6   7
ATOM      7  C   ILE A   7      15.473  11.025  13.724  0.00  0.00    +0.241 C 
ATOM      8  O   ILE A   7      16.093  11.350  14.740  0.00  0.00    -0.273 OA
ATOM      9  N   GLY A   8      14.176  10.692  13.765  0.00  0.00    -0.295 N 
ATOM     10  H   GLY A   8      13.679  10.467  12.880  0.00  0.00    +0.150 HD
BRANCH   9  11
ATOM     11  CA  GLY A   8      13.466  10.640  14.997  0.00  0.00    +0.176 C 
BRANCH  11  12
ATOM     12  C   GLY A   8      13.358   9.260  15.606  0.00  0.00    +0.243 C 
ATOM     13  N   ARG A   9      12.639   9.165  16.708  0.00  0.00    -0.297 N 
ATOM     14  H   ARG A   9      12.046   9.965  17.006  0.00  0.00    +0.150 HD
ATOM     15  O   GLY A   8      13.932   8.301  15.085  0.00  0.00    -0.273 OA
BRANCH  13  16
ATOM     16  CA  ARG A   9      12.668   7.940  17.518  0.00  0.00    +0.149 C 
BRANCH  16  17
ATOM     17  C   ARG A   9      12.179   6.739  16.748  0.00  0.00    +0.241 C 
ATOM     18  O   ARG A   9      12.635   5.614  16.998  0.00  0.00    -0.273 OA
ATOM     19  N   ASN A  10      11.251   6.925  15.801  0.00  0.00    -0.298 N 
ATOM     20  H   ASN A  10      10.918   7.885  15.578  0.00  0.00    +0.150 HD
BRANCH  19  21
ATOM     21  CA  ASN A  10      10.711   5.780  15.086  0.00  0.00    +0.146 C 
BRANCH  21  22
ATOM     22  C   ASN A  10      11.791   4.985  14.363  0.00  0.00    +0.227 C 
ATOM     23  O   ASN A  10      11.595   3.789  14.141  0.00  0.00    -0.286 OA
ENDBRANCH  21  22
BRANCH  21  24
ATOM     24  CB  ASN A  10       9.632   6.239  14.091  0.00  0.00    +0.112 C 
BRANCH  24  25
ATOM     25  CG  ASN A  10      10.129   6.938  12.860  0.00  0.00    +0.222 C 
ATOM     26  OD1 ASN A  10      10.854   7.918  12.989  0.00  0.00    -0.275 OA
ATOM     27  ND2 ASN A  10       9.763   6.418  11.685  0.00  0.00    -0.329 N 
ATOM     28 HD21 ASN A  10       9.144   5.583  11.656  0.00  0.00    +0.145 HD
ATOM     29 HD22 ASN A  10      10.097   6.848  10.799  0.00  0.00    +0.145 HD
ENDBRANCH  24  25
ENDBRANCH  21  24
ENDBRANCH  19  21
ENDBRANCH  16  17
BRANCH  16  30
ATOM     30  CB  ARG A   9      11.832   8.154  18.774  0.00  0.00    +0.033 C 
BRANCH  30  31
ATOM     31  CG  ARG A   9      12.434   9.148  19.742  0.00  0.00    +0.045 C 
BRANCH  31  32
ATOM     32  CD  ARG A   9      11.767   9.182  21.114  0.00  0.00    +0.174 C 
BRANCH  32  33
ATOM     33  NE  ARG A   9      10.377   9.569  20.944  0.00  0.00    -0.265 N 
ATOM     34  CZ  ARG A   9       9.300   8.788  20.894  0.00  0.00    +0.342 C 
ATOM     35  NH2 ARG A   9       9.390   7.467  21.065  0.00  0.00    -0.292 N 
ATOM     36 HH21 ARG A   9      10.316   7.027  21.242  0.00  0.00    +0.255 HD
ATOM     37 HH22 ARG A   9       8.534   6.878  21.022  0.00  0.00    +0.255 HD
ATOM     38  NH1 ARG A   9       8.114   9.326  20.689  0.00  0.00    -0.292 N 
ATOM     39 HH11 ARG A   9       7.269   8.721  20.649  0.00  0.00    +0.255 HD
ATOM     40 HH12 ARG A   9       8.024  10.355  20.567  0.00  0.00    +0.255 HD
ATOM     41  HE  ARG A   9      10.200  10.589  20.849  0.00  0.00    +0.259 HD
ENDBRANCH  32  33
ENDBRANCH  31  32
ENDBRANCH  30  31
ENDBRANCH  16  30
ENDBRANCH  13  16
ENDBRANCH  11  12
ENDBRANCH   9  11
ENDBRANCH   6   7
BRANCH   6  42
ATOM     42  CB  ILE A   7      17.338  10.194  12.293  0.00  0.00    +0.027 C 
ATOM     43  CG2 ILE A   7      16.991   8.748  12.566  0.00  0.00    +0.002 C 
BRANCH  42  44
ATOM     44  CG1 ILE A   7      18.068  10.324  10.961  0.00  0.00    +0.002 C 
ATOM     45  CD1 ILE A   7      17.177  10.095   9.736  0.00  0.00    +0.000 C 
ENDBRANCH  42  44
ENDBRANCH   6  42
ENDBRANCH   3   6
ENDBRANCH   1   2
BRANCH   1  48
ATOM     46  C   ASN A   5      16.998  15.927   9.561  0.00  0.00    +0.241 C 
ATOM     47  O   ASN A   5      18.059  16.041  10.152  0.00  0.00    -0.273 OA
ATOM     48  N   ILE A   6      15.943  15.307  10.048  0.00  0.00    -0.297 N 
ATOM     49  H   ILE A   6      15.120  15.188   9.424  0.00  0.00    +0.150 HD
BRANCH  46  50
ATOM     50  CA  ASN A   5      16.854  16.526   8.170  0.00  0.00    +0.158 C 
BRANCH  50  53
ATOM     51  C   VAL A   4      16.535  18.875   8.745  0.00  0.00    +0.241 C 
ATOM     52  O   VAL A   4      15.404  18.640   9.133  0.00  0.00    -0.273 OA
ATOM     53  N   ASN A   5      17.287  17.938   8.209  0.00  0.00    -0.297 N 
ATOM     54  H   ASN A   5      18.209  18.198   7.803  0.00  0.00    +0.150 HD
BRANCH  51  55
ATOM     55  CA  VAL A   4      17.125  20.266   8.813  0.00  0.00    +0.149 C 
BRANCH  55  57
ATOM     56  C   PRO A   3      16.134  22.387   8.205  0.00  0.00    +0.241 C 
ATOM     57  N   VAL A   4      16.006  21.211   8.786  0.00  0.00    -0.297 N 
ATOM     58  H   VAL A   4      15.102  20.951   9.230  0.00  0.00    +0.150 HD
ATOM     59  O   PRO A   3      17.205  22.772   7.724  0.00  0.00    -0.273 OA
BRANCH  56  65
ATOM     60  C   THR A   2      13.220  21.836   7.371  0.00  0.00    +0.246 C 
ATOM     61  N   PRO A   3      13.669  22.636   8.326  0.00  0.00    -0.272 N 
ATOM     62  CD  PRO A   3      13.001  22.997   9.584  0.00  0.00    +0.094 C 
ATOM     63  CG  PRO A   3      13.850  24.118  10.099  0.00  0.00    +0.024 C 
ATOM     64  CB  PRO A   3      15.091  24.232   9.378  0.00  0.00    +0.031 C 
ATOM     65  CA  PRO A   3      14.942  23.308   8.155  0.00  0.00    +0.152 C 
ATOM     66  O   THR A   2      13.833  21.664   6.328  0.00  0.00    -0.273 OA
BRANCH  60  67
ATOM     67  CA  THR A   2      11.894  21.118   7.606  0.00  0.00    +0.176 C 
BRANCH  67  70
ATOM     68  C   PRO A   1      10.434  22.136   5.925  0.00  0.00    +0.239 C 
ATOM     69  O   PRO A   1      10.325  23.147   6.609  0.00  0.00    -0.274 OA
ATOM     70  N   THR A   2      11.118  21.106   6.389  0.00  0.00    -0.295 N 
ATOM     71  H   THR A   2      11.096  20.224   5.839  0.00  0.00    +0.150 HD
BRANCH  68  73
ATOM     72  N   PRO A   1       8.933  20.835   4.423  0.00  0.00    -0.210 NA
ATOM     73  CA  PRO A   1       9.841  21.978   4.540  0.00  0.00    +0.149 C 
ATOM     74  CB  PRO A   1       8.933  23.164   4.144  0.00  0.00    +0.028 C 
ATOM     75  CG  PRO A   1       7.580  22.729   4.685  0.00  0.00    +0.021 C 
ATOM     76  CD  PRO A   1       7.539  21.242   4.404  0.00  0.00    +0.089 C 
ENDBRANCH  68  73
ENDBRANCH  67  70
BRANCH  67  77
ATOM     77  CB  THR A   2      12.117  19.695   8.131  0.00  0.00    +0.137 C 
ATOM     78  CG2 THR A   2      12.852  18.786   7.176  0.00  0.00    +0.034 C 
BRANCH  77  79
ATOM     79  OG1 THR A   2      12.925  19.785   9.284  0.00  0.00    -0.382 OA
ATOM     80  HG1 THR A   2      13.790  20.205   9.048  0.00  0.00    +0.210 HD
ENDBRANCH  77  79
ENDBRANCH  67  77
ENDBRANCH  60  67
ENDBRANCH  56  65
ENDBRANCH  55  57
BRANCH  55  81
ATOM     81  CB  VAL A   4      17.999  20.355  10.068  0.00  0.00    +0.027 C 
ATOM     82  CG2 VAL A   4      17.117  20.021  11.257  0.00  0.00    +0.002 C 
ATOM     83  CG1 VAL A   4      18.651  21.722  10.218  0.00  0.00    +0.002 C 
ENDBRANCH  55  81
ENDBRANCH  51  55
ENDBRANCH  50  53
BRANCH  50  84
ATOM     84  CB  ASN A   5      17.692  15.749   7.175  0.00  0.00    +0.114 C 
BRANCH  84  85
ATOM     85  CG  ASN A   5      17.595  16.258   5.752  0.00  0.00    +0.222 C 
ATOM     86  OD1 ASN A   5      16.495  16.601   5.324  0.00  0.00    -0.275 OA
ATOM     87  ND2 ASN A   5      18.748  16.306   5.071  0.00  0.00    -0.329 N 
ATOM     88 HD21 ASN A   5      19.631  15.992   5.521  0.00  0.00    +0.145 HD
ATOM     89 HD22 ASN A   5      18.760  16.657   4.092  0.00  0.00    +0.145 HD
ENDBRANCH  84  85
ENDBRANCH  50  84
ENDBRANCH  46  50
ENDBRANCH   1  48
BRANCH   1  90
ATOM     90  CB  ILE A   6      14.675  15.497  12.069  0.00  0.00    +0.027 C 
ATOM     91  CG2 ILE A   6      14.408  14.823  13.397  0.00  0.00    +0.002 C 
BRANCH  90  92
ATOM     92  CG1 ILE A   6      14.921  16.999  12.166  0.00  0.00    +0.002 C 
ATOM     93  CD1 ILE A   6      13.748  17.897  12.438  0.00  0.00    +0.000 C 
ENDBRANCH  90  92
ENDBRANCH   1  90
TORSDOF 33
REMARK  Name = ../refined-set-2016/4kb9/4kb9_pocket.pdb
REMARK  229 active torsions:
REMARK  status: ('A' for Active; 'I' for Inactive)
REMARK    1  A    between atoms: _1  and  _3
REMARK    2  A    between atoms: _3  and  _4
REMARK    3  A    between atoms: _3  and  _6
REMARK    4  A    between atoms: _6  and  _7
REMARK    5  A    between atoms: _7  and  _8
REMARK    6  A    between atoms: _8  and  _9
REMARK    7  A    between atoms: _18  and  _20
REMARK    8  A    between atoms: _20  and  _21
REMARK    9  A    between atoms: _20  and  _23
REMARK   10  A    between atoms: _23  and  _24
REMARK   11  A    between atoms: _27  and  _29
REMARK   12  A    between atoms: _29  and  _30
REMARK   13  A    between atoms: _29  and  _32
REMARK   14  A    between atoms: _32  and  _33
REMARK   15  A    between atoms: _36  and  _38
REMARK   16  A    between atoms: _38  and  _39
REMARK   17  A    between atoms: _38  and  _41
REMARK   18  A    between atoms: _41  and  _42
REMARK   19  A    between atoms: _45  and  _47
REMARK   20  A    between atoms: _47  and  _48
REMARK   21  A    between atoms: _47  and  _50
REMARK   22  A    between atoms: _50  and  _51
REMARK   23  A    between atoms: _54  and  _56
REMARK   24  A    between atoms: _56  and  _57
REMARK   25  A    between atoms: _59  and  _61
REMARK   26  A    between atoms: _61  and  _62
REMARK   27  A    between atoms: _65  and  _67
REMARK   28  A    between atoms: _67  and  _68
REMARK   29  A    between atoms: _67  and  _70
REMARK   30  A    between atoms: _70  and  _71
REMARK   31  A    between atoms: _74  and  _76
REMARK   32  A    between atoms: _76  and  _77
REMARK   33  A    between atoms: _76  and  _79
REMARK   34  A    between atoms: _79  and  _80
REMARK   35  A    between atoms: _83  and  _85
REMARK   36  A    between atoms: _85  and  _86
REMARK   37  A    between atoms: _85  and  _88
REMARK   38  A    between atoms: _88  and  _89
REMARK   39  A    between atoms: _92  and  _94
REMARK   40  A    between atoms: _94  and  _95
REMARK   41  A    between atoms: _94  and  _97
REMARK   42  A    between atoms: _100  and  _102
REMARK   43  A    between atoms: _102  and  _103
REMARK   44  A    between atoms: _102  and  _105
REMARK   45  A    between atoms: _105  and  _106
REMARK   46  A    between atoms: _106  and  _107
REMARK   47  A    between atoms: _107  and  _108
REMARK   48  A    between atoms: _108  and  _109
REMARK   49  A    between atoms: _113  and  _115
REMARK   50  A    between atoms: _115  and  _116
REMARK   51  A    between atoms: _115  and  _118
REMARK   52  A    between atoms: _118  and  _119
REMARK   53  A    between atoms: _119  and  _120
REMARK   54  A    between atoms: _122  and  _124
REMARK   55  A    between atoms: _124  and  _125
REMARK   56  A    between atoms: _124  and  _127
REMARK   57  A    between atoms: _127  and  _128
REMARK   58  A    between atoms: _131  and  _133
REMARK   59  A    between atoms: _133  and  _134
REMARK   60  A    between atoms: _136  and  _138
REMARK   61  A    between atoms: _138  and  _139
REMARK   62  A    between atoms: _141  and  _143
REMARK   63  A    between atoms: _143  and  _144
REMARK   64  A    between atoms: _143  and  _146
REMARK   65  A    between atoms: _146  and  _147
REMARK   66  A    between atoms: _150  and  _152
REMARK   67  A    between atoms: _152  and  _153
REMARK   68  A    between atoms: _155  and  _157
REMARK   69  A    between atoms: _157  and  _158
REMARK   70  A    between atoms: _160  and  _162
REMARK   71  A    between atoms: _162  and  _163
REMARK   72  A    between atoms: _162  and  _165
REMARK   73  A    between atoms: _165  and  _166
REMARK   74  A    between atoms: _172  and  _174
REMARK   75  A    between atoms: _174  and  _175
REMARK   76  A    between atoms: _174  and  _177
REMARK   77  A    between atoms: _177  and  _178
REMARK   78  A    between atoms: _181  and  _183
REMARK   79  A    between atoms: _183  and  _184
REMARK   80  A    between atoms: _183  and  _186
REMARK   81  A    between atoms: _189  and  _191
REMARK   82  A    between atoms: _191  and  _192
REMARK   83  A    between atoms: _191  and  _194
REMARK   84  A    between atoms: _194  and  _195
REMARK   85  A    between atoms: _198  and  _200
REMARK   86  A    between atoms: _200  and  _201
REMARK   87  A    between atoms: _200  and  _203
REMARK   88  A    between atoms: _203  and  _204
REMARK   89  A    between atoms: _208  and  _209
REMARK   90  A    between atoms: _214  and  _216
REMARK   91  A    between atoms: _216  and  _217
REMARK   92  A    between atoms: _216  and  _219
REMARK   93  A    between atoms: _222  and  _224
REMARK   94  A    between atoms: _224  and  _225
REMARK   95  A    between atoms: _224  and  _227
REMARK   96  A    between atoms: _227  and  _228
REMARK   97  A    between atoms: _233  and  _235
REMARK   98  A    between atoms: _235  and  _236
REMARK   99  A    between atoms: _235  and  _238
REMARK  100  A    between atoms: _238  and  _239
REMARK  101  A    between atoms: _242  and  _244
REMARK  102  A    between atoms: _244  and  _245
REMARK  103  A    between atoms: _247  and  _249
REMARK  104  A    between atoms: _249  and  _250
REMARK  105  A    between atoms: _249  and  _252
REMARK  106  A    between atoms: _252  and  _253
REMARK  107  A    between atoms: _253  and  _254
REMARK  108  A    between atoms: _254  and  _255
REMARK  109  A    between atoms: _264  and  _266
REMARK  110  A    between atoms: _266  and  _267
REMARK  111  A    between atoms: _266  and  _269
REMARK  112  A    between atoms: _269  and  _270
REMARK  113  A    between atoms: _275  and  _277
REMARK  114  A    between atoms: _277  and  _278
REMARK  115  A    between atoms: _277  and  _280
REMARK  116  A    between atoms: _280  and  _281
REMARK  117  A    between atoms: _281  and  _282
REMARK  118  A    between atoms: _282  and  _283
REMARK  119  A    between atoms: _292  and  _294
REMARK  120  A    between atoms: _294  and  _295
REMARK  121  A    between atoms: _294  and  _297
REMARK  122  A    between atoms: _297  and  _298
REMARK  123  A    between atoms: _301  and  _303
REMARK  124  A    between atoms: _303  and  _304
REMARK  125  A    between atoms: _303  and  _306
REMARK  126  A    between atoms: _306  and  _307
REMARK  127  A    between atoms: _310  and  _312
REMARK  128  A    between atoms: _312  and  _313
REMARK  129  A    between atoms: _312  and  _315
REMARK  130  A    between atoms: _315  and  _316
REMARK  131  A    between atoms: _319  and  _321
REMARK  132  A    between atoms: _321  and  _322
REMARK  133  A    between atoms: _321  and  _324
REMARK  134  A    between atoms: _324  and  _325
REMARK  135  A    between atoms: _328  and  _330
REMARK  136  A    between atoms: _330  and  _331
REMARK  137  A    between atoms: _333  and  _335
REMARK  138  A    between atoms: _335  and  _336
REMARK  139  A    between atoms: _339  and  _341
REMARK  140  A    between atoms: _341  and  _342
REMARK  141  A    between atoms: _341  and  _344
REMARK  142  A    between atoms: _344  and  _345
REMARK  143  A    between atoms: _348  and  _350
REMARK  144  A    between atoms: _350  and  _351
REMARK  145  A    between atoms: _350  and  _353
REMARK  146  A    between atoms: _353  and  _354
REMARK  147  A    between atoms: _357  and  _359
REMARK  148  A    between atoms: _359  and  _360
REMARK  149  A    between atoms: _359  and  _362
REMARK  150  A    between atoms: _362  and  _363
REMARK  151  A    between atoms: _366  and  _368
REMARK  152  A    between atoms: _368  and  _369
REMARK  153  A    between atoms: _368  and  _371
REMARK  154  A    between atoms: _374  and  _376
REMARK  155  A    between atoms: _376  and  _377
REMARK  156  A    between atoms: _376  and  _379
REMARK  157  A    between atoms: _379  and  _380
REMARK  158  A    between atoms: _380  and  _381
REMARK  159  A    between atoms: _381  and  _382
REMARK  160  A    between atoms: _382  and  _383
REMARK  161  A    between atoms: _387  and  _389
REMARK  162  A    between atoms: _389  and  _390
REMARK  163  A    between atoms: _389  and  _392
REMARK  164  A    between atoms: _392  and  _393
REMARK  165  A    between atoms: _393  and  _394
REMARK  166  A    between atoms: _396  and  _398
REMARK  167  A    between atoms: _398  and  _399
REMARK  168  A    between atoms: _398  and  _401
REMARK  169  A    between atoms: _401  and  _402
REMARK  170  A    between atoms: _405  and  _407
REMARK  171  A    between atoms: _407  and  _408
REMARK  172  A    between atoms: _410  and  _412
REMARK  173  A    between atoms: _412  and  _413
REMARK  174  A    between atoms: _415  and  _417
REMARK  175  A    between atoms: _417  and  _418
REMARK  176  A    between atoms: _417  and  _420
REMARK  177  A    between atoms: _420  and  _421
REMARK  178  A    between atoms: _424  and  _426
REMARK  179  A    between atoms: _426  and  _427
REMARK  180  A    between atoms: _429  and  _431
REMARK  181  A    between atoms: _431  and  _432
REMARK  182  A    between atoms: _434  and  _436
REMARK  183  A    between atoms: _436  and  _437
REMARK  184  A    between atoms: _436  and  _439
REMARK  185  A    between atoms: _439  and  _440
REMARK  186  A    between atoms: _446  and  _448
REMARK  187  A    between atoms: _448  and  _449
REMARK  188  A    between atoms: _448  and  _451
REMARK  189  A    between atoms: _451  and  _452
REMARK  190  A    between atoms: _455  and  _457
REMARK  191  A    between atoms: _457  and  _458
REMARK  192  A    between atoms: _457  and  _460
REMARK  193  A    between atoms: _463  and  _465
REMARK  194  A    between atoms: _465  and  _466
REMARK  195  A    between atoms: _465  and  _468
REMARK  196  A    between atoms: _468  and  _469
REMARK  197  A    between atoms: _473  and  _474
REMARK  198  A    between atoms: _479  and  _481
REMARK  199  A    between atoms: _481  and  _482
REMARK  200  A    between atoms: _481  and  _484
REMARK  201  A    between atoms: _484  and  _485
REMARK  202  A    between atoms: _489  and  _490
REMARK  203  A    between atoms: _495  and  _497
REMARK  204  A    between atoms: _497  and  _498
REMARK  205  A    between atoms: _497  and  _500
REMARK  206  A    between atoms: _503  and  _505
REMARK  207  A    between atoms: _505  and  _506
REMARK  208  A    between atoms: _505  and  _508
REMARK  209  A    between atoms: _508  and  _509
REMARK  210  A    between atoms: _514  and  _516
REMARK  211  A    between atoms: _516  and  _517
REMARK  212  A    between atoms: _516  and  _519
REMARK  213  A    between atoms: _519  and  _520
REMARK  214  A    between atoms: _523  and  _525
REMARK  215  A    between atoms: _525  and  _526
REMARK  216  A    between atoms: _525  and  _528
REMARK  217  A    between atoms: _528  and  _529
REMARK  218  A    between atoms: _532  and  _534
REMARK  219  A    between atoms: _534  and  _535
REMARK  220  A    between atoms: _537  and  _539
REMARK  221  A    between atoms: _539  and  _540
REMARK  222  A    between atoms: _539  and  _542
REMARK  223  A    between atoms: _542  and  _543
REMARK  224  A    between atoms: _543  and  _544
REMARK  225  A    between atoms: _544  and  _545
REMARK  226  A    between atoms: _554  and  _556
REMARK  227  A    between atoms: _556  and  _557
REMARK  228  A    between atoms: _556  and  _559
REMARK  229  A    between atoms: _559  and  _560
REMARK                            x       y       z     vdW  Elec       q    Type
REMARK                         _______ _______ _______ _____ _____    ______ ____
ROOT
ATOM      1  O   HOH     1      10.898  22.465  16.441  0.00  0.00    +0.000 OA
ENDROOT
TORSDOF 0
REMARK  Name = ../refined-set-2016/4kb9/4kb9_pocket.pdb
REMARK  229 active torsions:
REMARK  status: ('A' for Active; 'I' for Inactive)
REMARK    1  A    between atoms: _1  and  _3
REMARK    2  A    between atoms: _3  and  _4
REMARK    3  A    between atoms: _3  and  _6
REMARK    4  A    between atoms: _6  and  _7
REMARK    5  A    between atoms: _7  and  _8
REMARK    6  A    between atoms: _8  and  _9
REMARK    7  A    between atoms: _18  and  _20
REMARK    8  A    between atoms: _20  and  _21
REMARK    9  A    between atoms: _20  and  _23
REMARK   10  A    between atoms: _23  and  _24
REMARK   11  A    between atoms: _27  and  _29
REMARK   12  A    between atoms: _29  and  _30
REMARK   13  A    between atoms: _29  and  _32
REMARK   14  A    between atoms: _32  and  _33
REMARK   15  A    between atoms: _36  and  _38
REMARK   16  A    between atoms: _38  and  _39
REMARK   17  A    between atoms: _38  and  _41
REMARK   18  A    between atoms: _41  and  _42
REMARK   19  A    between atoms: _45  and  _47
REMARK   20  A    between atoms: _47  and  _48
REMARK   21  A    between atoms: _47  and  _50
REMARK   22  A    between atoms: _50  and  _51
REMARK   23  A    between atoms: _54  and  _56
REMARK   24  A    between atoms: _56  and  _57
REMARK   25  A    between atoms: _59  and  _61
REMARK   26  A    between atoms: _61  and  _62
REMARK   27  A    between atoms: _65  and  _67
REMARK   28  A    between atoms: _67  and  _68
REMARK   29  A    between atoms: _67  and  _70
REMARK   30  A    between atoms: _70  and  _71
REMARK   31  A    between atoms: _74  and  _76
REMARK   32  A    between atoms: _76  and  _77
REMARK   33  A    between atoms: _76  and  _79
REMARK   34  A    between atoms: _79  and  _80
REMARK   35  A    between atoms: _83  and  _85
REMARK   36  A    between atoms: _85  and  _86
REMARK   37  A    between atoms: _85  and  _88
REMARK   38  A    between atoms: _88  and  _89
REMARK   39  A    between atoms: _92  and  _94
REMARK   40  A    between atoms: _94  and  _95
REMARK   41  A    between atoms: _94  and  _97
REMARK   42  A    between atoms: _100  and  _102
REMARK   43  A    between atoms: _102  and  _103
REMARK   44  A    between atoms: _102  and  _105
REMARK   45  A    between atoms: _105  and  _106
REMARK   46  A    between atoms: _106  and  _107
REMARK   47  A    between atoms: _107  and  _108
REMARK   48  A    between atoms: _108  and  _109
REMARK   49  A    between atoms: _113  and  _115
REMARK   50  A    between atoms: _115  and  _116
REMARK   51  A    between atoms: _115  and  _118
REMARK   52  A    between atoms: _118  and  _119
REMARK   53  A    between atoms: _119  and  _120
REMARK   54  A    between atoms: _122  and  _124
REMARK   55  A    between atoms: _124  and  _125
REMARK   56  A    between atoms: _124  and  _127
REMARK   57  A    between atoms: _127  and  _128
REMARK   58  A    between atoms: _131  and  _133
REMARK   59  A    between atoms: _133  and  _134
REMARK   60  A    between atoms: _136  and  _138
REMARK   61  A    between atoms: _138  and  _139
REMARK   62  A    between atoms: _141  and  _143
REMARK   63  A    between atoms: _143  and  _144
REMARK   64  A    between atoms: _143  and  _146
REMARK   65  A    between atoms: _146  and  _147
REMARK   66  A    between atoms: _150  and  _152
REMARK   67  A    between atoms: _152  and  _153
REMARK   68  A    between atoms: _155  and  _157
REMARK   69  A    between atoms: _157  and  _158
REMARK   70  A    between atoms: _160  and  _162
REMARK   71  A    between atoms: _162  and  _163
REMARK   72  A    between atoms: _162  and  _165
REMARK   73  A    between atoms: _165  and  _166
REMARK   74  A    between atoms: _172  and  _174
REMARK   75  A    between atoms: _174  and  _175
REMARK   76  A    between atoms: _174  and  _177
REMARK   77  A    between atoms: _177  and  _178
REMARK   78  A    between atoms: _181  and  _183
REMARK   79  A    between atoms: _183  and  _184
REMARK   80  A    between atoms: _183  and  _186
REMARK   81  A    between atoms: _189  and  _191
REMARK   82  A    between atoms: _191  and  _192
REMARK   83  A    between atoms: _191  and  _194
REMARK   84  A    between atoms: _194  and  _195
REMARK   85  A    between atoms: _198  and  _200
REMARK   86  A    between atoms: _200  and  _201
REMARK   87  A    between atoms: _200  and  _203
REMARK   88  A    between atoms: _203  and  _204
REMARK   89  A    between atoms: _208  and  _209
REMARK   90  A    between atoms: _214  and  _216
REMARK   91  A    between atoms: _216  and  _217
REMARK   92  A    between atoms: _216  and  _219
REMARK   93  A    between atoms: _222  and  _224
REMARK   94  A    between atoms: _224  and  _225
REMARK   95  A    between atoms: _224  and  _227
REMARK   96  A    between atoms: _227  and  _228
REMARK   97  A    between atoms: _233  and  _235
REMARK   98  A    between atoms: _235  and  _236
REMARK   99  A    between atoms: _235  and  _238
REMARK  100  A    between atoms: _238  and  _239
REMARK  101  A    between atoms: _242  and  _244
REMARK  102  A    between atoms: _244  and  _245
REMARK  103  A    between atoms: _247  and  _249
REMARK  104  A    between atoms: _249  and  _250
REMARK  105  A    between atoms: _249  and  _252
REMARK  106  A    between atoms: _252  and  _253
REMARK  107  A    between atoms: _253  and  _254
REMARK  108  A    between atoms: _254  and  _255
REMARK  109  A    between atoms: _264  and  _266
REMARK  110  A    between atoms: _266  and  _267
REMARK  111  A    between atoms: _266  and  _269
REMARK  112  A    between atoms: _269  and  _270
REMARK  113  A    between atoms: _275  and  _277
REMARK  114  A    between atoms: _277  and  _278
REMARK  115  A    between atoms: _277  and  _280
REMARK  116  A    between atoms: _280  and  _281
REMARK  117  A    between atoms: _281  and  _282
REMARK  118  A    between atoms: _282  and  _283
REMARK  119  A    between atoms: _292  and  _294
REMARK  120  A    between atoms: _294  and  _295
REMARK  121  A    between atoms: _294  and  _297
REMARK  122  A    between atoms: _297  and  _298
REMARK  123  A    between atoms: _301  and  _303
REMARK  124  A    between atoms: _303  and  _304
REMARK  125  A    between atoms: _303  and  _306
REMARK  126  A    between atoms: _306  and  _307
REMARK  127  A    between atoms: _310  and  _312
REMARK  128  A    between atoms: _312  and  _313
REMARK  129  A    between atoms: _312  and  _315
REMARK  130  A    between atoms: _315  and  _316
REMARK  131  A    between atoms: _319  and  _321
REMARK  132  A    between atoms: _321  and  _322
REMARK  133  A    between atoms: _321  and  _324
REMARK  134  A    between atoms: _324  and  _325
REMARK  135  A    between atoms: _328  and  _330
REMARK  136  A    between atoms: _330  and  _331
REMARK  137  A    between atoms: _333  and  _335
REMARK  138  A    between atoms: _335  and  _336
REMARK  139  A    between atoms: _339  and  _341
REMARK  140  A    between atoms: _341  and  _342
REMARK  141  A    between atoms: _341  and  _344
REMARK  142  A    between atoms: _344  and  _345
REMARK  143  A    between atoms: _348  and  _350
REMARK  144  A    between atoms: _350  and  _351
REMARK  145  A    between atoms: _350  and  _353
REMARK  146  A    between atoms: _353  and  _354
REMARK  147  A    between atoms: _357  and  _359
REMARK  148  A    between atoms: _359  and  _360
REMARK  149  A    between atoms: _359  and  _362
REMARK  150  A    between atoms: _362  and  _363
REMARK  151  A    between atoms: _366  and  _368
REMARK  152  A    between atoms: _368  and  _369
REMARK  153  A    between atoms: _368  and  _371
REMARK  154  A    between atoms: _374  and  _376
REMARK  155  A    between atoms: _376  and  _377
REMARK  156  A    between atoms: _376  and  _379
REMARK  157  A    between atoms: _379  and  _380
REMARK  158  A    between atoms: _380  and  _381
REMARK  159  A    between atoms: _381  and  _382
REMARK  160  A    between atoms: _382  and  _383
REMARK  161  A    between atoms: _387  and  _389
REMARK  162  A    between atoms: _389  and  _390
REMARK  163  A    between atoms: _389  and  _392
REMARK  164  A    between atoms: _392  and  _393
REMARK  165  A    between atoms: _393  and  _394
REMARK  166  A    between atoms: _396  and  _398
REMARK  167  A    between atoms: _398  and  _399
REMARK  168  A    between atoms: _398  and  _401
REMARK  169  A    between atoms: _401  and  _402
REMARK  170  A    between atoms: _405  and  _407
REMARK  171  A    between atoms: _407  and  _408
REMARK  172  A    between atoms: _410  and  _412
REMARK  173  A    between atoms: _412  and  _413
REMARK  174  A    between atoms: _415  and  _417
REMARK  175  A    between atoms: _417  and  _418
REMARK  176  A    between atoms: _417  and  _420
REMARK  177  A    between atoms: _420  and  _421
REMARK  178  A    between atoms: _424  and  _426
REMARK  179  A    between atoms: _426  and  _427
REMARK  180  A    between atoms: _429  and  _431
REMARK  181  A    between atoms: _431  and  _432
REMARK  182  A    between atoms: _434  and  _436
REMARK  183  A    between atoms: _436  and  _437
REMARK  184  A    between atoms: _436  and  _439
REMARK  185  A    between atoms: _439  and  _440
REMARK  186  A    between atoms: _446  and  _448
REMARK  187  A    between atoms: _448  and  _449
REMARK  188  A    between atoms: _448  and  _451
REMARK  189  A    between atoms: _451  and  _452
REMARK  190  A    between atoms: _455  and  _457
REMARK  191  A    between atoms: _457  and  _458
REMARK  192  A    between atoms: _457  and  _460
REMARK  193  A    between atoms: _463  and  _465
REMARK  194  A    between atoms: _465  and  _466
REMARK  195  A    between atoms: _465  and  _468
REMARK  196  A    between atoms: _468  and  _469
REMARK  197  A    between atoms: _473  and  _474
REMARK  198  A    between atoms: _479  and  _481
REMARK  199  A    between atoms: _481  and  _482
REMARK  200  A    between atoms: _481  and  _484
REMARK  201  A    between atoms: _484  and  _485
REMARK  202  A    between atoms: _489  and  _490
REMARK  203  A    between atoms: _495  and  _497
REMARK  204  A    between atoms: _497  and  _498
REMARK  205  A    between atoms: _497  and  _500
REMARK  206  A    between atoms: _503  and  _505
REMARK  207  A    between atoms: _505  and  _506
REMARK  208  A    between atoms: _505  and  _508
REMARK  209  A    between atoms: _508  and  _509
REMARK  210  A    between atoms: _514  and  _516
REMARK  211  A    between atoms: _516  and  _517
REMARK  212  A    between atoms: _516  and  _519
REMARK  213  A    between atoms: _519  and  _520
REMARK  214  A    between atoms: _523  and  _525
REMARK  215  A    between atoms: _525  and  _526
REMARK  216  A    between atoms: _525  and  _528
REMARK  217  A    between atoms: _528  and  _529
REMARK  218  A    between atoms: _532  and  _534
REMARK  219  A    between atoms: _534  and  _535
REMARK  220  A    between atoms: _537  and  _539
REMARK  221  A    between atoms: _539  and  _540
REMARK  222  A    between atoms: _539  and  _542
REMARK  223  A    between atoms: _542  and  _543
REMARK  224  A    between atoms: _543  and  _544
REMARK  225  A    between atoms: _544  and  _545
REMARK  226  A    between atoms: _554  and  _556
REMARK  227  A    between atoms: _556  and  _557
REMARK  228  A    between atoms: _556  and  _559
REMARK  229  A    between atoms: _559  and  _560
REMARK                            x       y       z     vdW  Elec       q    Type
REMARK                         _______ _______ _______ _____ _____    ______ ____
ROOT
ATOM      1  O   HOH     1      18.834  23.154  18.019  0.00  0.00    +0.000 OA
ENDROOT
TORSDOF 0
REMARK  Name = ../refined-set-2016/4kb9/4kb9_pocket.pdb
REMARK  229 active torsions:
REMARK  status: ('A' for Active; 'I' for Inactive)
REMARK    1  A    between atoms: _1  and  _3
REMARK    2  A    between atoms: _3  and  _4
REMARK    3  A    between atoms: _3  and  _6
REMARK    4  A    between atoms: _6  and  _7
REMARK    5  A    between atoms: _7  and  _8
REMARK    6  A    between atoms: _8  and  _9
REMARK    7  A    between atoms: _18  and  _20
REMARK    8  A    between atoms: _20  and  _21
REMARK    9  A    between atoms: _20  and  _23
REMARK   10  A    between atoms: _23  and  _24
REMARK   11  A    between atoms: _27  and  _29
REMARK   12  A    between atoms: _29  and  _30
REMARK   13  A    between atoms: _29  and  _32
REMARK   14  A    between atoms: _32  and  _33
REMARK   15  A    between atoms: _36  and  _38
REMARK   16  A    between atoms: _38  and  _39
REMARK   17  A    between atoms: _38  and  _41
REMARK   18  A    between atoms: _41  and  _42
REMARK   19  A    between atoms: _45  and  _47
REMARK   20  A    between atoms: _47  and  _48
REMARK   21  A    between atoms: _47  and  _50
REMARK   22  A    between atoms: _50  and  _51
REMARK   23  A    between atoms: _54  and  _56
REMARK   24  A    between atoms: _56  and  _57
REMARK   25  A    between atoms: _59  and  _61
REMARK   26  A    between atoms: _61  and  _62
REMARK   27  A    between atoms: _65  and  _67
REMARK   28  A    between atoms: _67  and  _68
REMARK   29  A    between atoms: _67  and  _70
REMARK   30  A    between atoms: _70  and  _71
REMARK   31  A    between atoms: _74  and  _76
REMARK   32  A    between atoms: _76  and  _77
REMARK   33  A    between atoms: _76  and  _79
REMARK   34  A    between atoms: _79  and  _80
REMARK   35  A    between atoms: _83  and  _85
REMARK   36  A    between atoms: _85  and  _86
REMARK   37  A    between atoms: _85  and  _88
REMARK   38  A    between atoms: _88  and  _89
REMARK   39  A    between atoms: _92  and  _94
REMARK   40  A    between atoms: _94  and  _95
REMARK   41  A    between atoms: _94  and  _97
REMARK   42  A    between atoms: _100  and  _102
REMARK   43  A    between atoms: _102  and  _103
REMARK   44  A    between atoms: _102  and  _105
REMARK   45  A    between atoms: _105  and  _106
REMARK   46  A    between atoms: _106  and  _107
REMARK   47  A    between atoms: _107  and  _108
REMARK   48  A    between atoms: _108  and  _109
REMARK   49  A    between atoms: _113  and  _115
REMARK   50  A    between atoms: _115  and  _116
REMARK   51  A    between atoms: _115  and  _118
REMARK   52  A    between atoms: _118  and  _119
REMARK   53  A    between atoms: _119  and  _120
REMARK   54  A    between atoms: _122  and  _124
REMARK   55  A    between atoms: _124  and  _125
REMARK   56  A    between atoms: _124  and  _127
REMARK   57  A    between atoms: _127  and  _128
REMARK   58  A    between atoms: _131  and  _133
REMARK   59  A    between atoms: _133  and  _134
REMARK   60  A    between atoms: _136  and  _138
REMARK   61  A    between atoms: _138  and  _139
REMARK   62  A    between atoms: _141  and  _143
REMARK   63  A    between atoms: _143  and  _144
REMARK   64  A    between atoms: _143  and  _146
REMARK   65  A    between atoms: _146  and  _147
REMARK   66  A    between atoms: _150  and  _152
REMARK   67  A    between atoms: _152  and  _153
REMARK   68  A    between atoms: _155  and  _157
REMARK   69  A    between atoms: _157  and  _158
REMARK   70  A    between atoms: _160  and  _162
REMARK   71  A    between atoms: _162  and  _163
REMARK   72  A    between atoms: _162  and  _165
REMARK   73  A    between atoms: _165  and  _166
REMARK   74  A    between atoms: _172  and  _174
REMARK   75  A    between atoms: _174  and  _175
REMARK   76  A    between atoms: _174  and  _177
REMARK   77  A    between atoms: _177  and  _178
REMARK   78  A    between atoms: _181  and  _183
REMARK   79  A    between atoms: _183  and  _184
REMARK   80  A    between atoms: _183  and  _186
REMARK   81  A    between atoms: _189  and  _191
REMARK   82  A    between atoms: _191  and  _192
REMARK   83  A    between atoms: _191  and  _194
REMARK   84  A    between atoms: _194  and  _195
REMARK   85  A    between atoms: _198  and  _200
REMARK   86  A    between atoms: _200  and  _201
REMARK   87  A    between atoms: _200  and  _203
REMARK   88  A    between atoms: _203  and  _204
REMARK   89  A    between atoms: _208  and  _209
REMARK   90  A    between atoms: _214  and  _216
REMARK   91  A    between atoms: _216  and  _217
REMARK   92  A    between atoms: _216  and  _219
REMARK   93  A    between atoms: _222  and  _224
REMARK   94  A    between atoms: _224  and  _225
REMARK   95  A    between atoms: _224  and  _227
REMARK   96  A    between atoms: _227  and  _228
REMARK   97  A    between atoms: _233  and  _235
REMARK   98  A    between atoms: _235  and  _236
REMARK   99  A    between atoms: _235  and  _238
REMARK  100  A    between atoms: _238  and  _239
REMARK  101  A    between atoms: _242  and  _244
REMARK  102  A    between atoms: _244  and  _245
REMARK  103  A    between atoms: _247  and  _249
REMARK  104  A    between atoms: _249  and  _250
REMARK  105  A    between atoms: _249  and  _252
REMARK  106  A    between atoms: _252  and  _253
REMARK  107  A    between atoms: _253  and  _254
REMARK  108  A    between atoms: _254  and  _255
REMARK  109  A    between atoms: _264  and  _266
REMARK  110  A    between atoms: _266  and  _267
REMARK  111  A    between atoms: _266  and  _269
REMARK  112  A    between atoms: _269  and  _270
REMARK  113  A    between atoms: _275  and  _277
REMARK  114  A    between atoms: _277  and  _278
REMARK  115  A    between atoms: _277  and  _280
REMARK  116  A    between atoms: _280  and  _281
REMARK  117  A    between atoms: _281  and  _282
REMARK  118  A    between atoms: _282  and  _283
REMARK  119  A    between atoms: _292  and  _294
REMARK  120  A    between atoms: _294  and  _295
REMARK  121  A    between atoms: _294  and  _297
REMARK  122  A    between atoms: _297  and  _298
REMARK  123  A    between atoms: _301  and  _303
REMARK  124  A    between atoms: _303  and  _304
REMARK  125  A    between atoms: _303  and  _306
REMARK  126  A    between atoms: _306  and  _307
REMARK  127  A    between atoms: _310  and  _312
REMARK  128  A    between atoms: _312  and  _313
REMARK  129  A    between atoms: _312  and  _315
REMARK  130  A    between atoms: _315  and  _316
REMARK  131  A    between atoms: _319  and  _321
REMARK  132  A    between atoms: _321  and  _322
REMARK  133  A    between atoms: _321  and  _324
REMARK  134  A    between atoms: _324  and  _325
REMARK  135  A    between atoms: _328  and  _330
REMARK  136  A    between atoms: _330  and  _331
REMARK  137  A    between atoms: _333  and  _335
REMARK  138  A    between atoms: _335  and  _336
REMARK  139  A    between atoms: _339  and  _341
REMARK  140  A    between atoms: _341  and  _342
REMARK  141  A    between atoms: _341  and  _344
REMARK  142  A    between atoms: _344  and  _345
REMARK  143  A    between atoms: _348  and  _350
REMARK  144  A    between atoms: _350  and  _351
REMARK  145  A    between atoms: _350  and  _353
REMARK  146  A    between atoms: _353  and  _354
REMARK  147  A    between atoms: _357  and  _359
REMARK  148  A    between atoms: _359  and  _360
REMARK  149  A    between atoms: _359  and  _362
REMARK  150  A    between atoms: _362  and  _363
REMARK  151  A    between atoms: _366  and  _368
REMARK  152  A    between atoms: _368  and  _369
REMARK  153  A    between atoms: _368  and  _371
REMARK  154  A    between atoms: _374  and  _376
REMARK  155  A    between atoms: _376  and  _377
REMARK  156  A    between atoms: _376  and  _379
REMARK  157  A    between atoms: _379  and  _380
REMARK  158  A    between atoms: _380  and  _381
REMARK  159  A    between atoms: _381  and  _382
REMARK  160  A    between atoms: _382  and  _383
REMARK  161  A    between atoms: _387  and  _389
REMARK  162  A    between atoms: _389  and  _390
REMARK  163  A    between atoms: _389  and  _392
REMARK  164  A    between atoms: _392  and  _393
REMARK  165  A    between atoms: _393  and  _394
REMARK  166  A    between atoms: _396  and  _398
REMARK  167  A    between atoms: _398  and  _399
REMARK  168  A    between atoms: _398  and  _401
REMARK  169  A    between atoms: _401  and  _402
REMARK  170  A    between atoms: _405  and  _407
REMARK  171  A    between atoms: _407  and  _408
REMARK  172  A    between atoms: _410  and  _412
REMARK  173  A    between atoms: _412  and  _413
REMARK  174  A    between atoms: _415  and  _417
REMARK  175  A    between atoms: _417  and  _418
REMARK  176  A    between atoms: _417  and  _420
REMARK  177  A    between atoms: _420  and  _421
REMARK  178  A    between atoms: _424  and  _426
REMARK  179  A    between atoms: _426  and  _427
REMARK  180  A    between atoms: _429  and  _431
REMARK  181  A    between atoms: _431  and  _432
REMARK  182  A    between atoms: _434  and  _436
REMARK  183  A    between atoms: _436  and  _437
REMARK  184  A    between atoms: _436  and  _439
REMARK  185  A    between atoms: _439  and  _440
REMARK  186  A    between atoms: _446  and  _448
REMARK  187  A    between atoms: _448  and  _449
REMARK  188  A    between atoms: _448  and  _451
REMARK  189  A    between atoms: _451  and  _452
REMARK  190  A    between atoms: _455  and  _457
REMARK  191  A    between atoms: _457  and  _458
REMARK  192  A    between atoms: _457  and  _460
REMARK  193  A    between atoms: _463  and  _465
REMARK  194  A    between atoms: _465  and  _466
REMARK  195  A    between atoms: _465  and  _468
REMARK  196  A    between atoms: _468  and  _469
REMARK  197  A    between atoms: _473  and  _474
REMARK  198  A    between atoms: _479  and  _481
REMARK  199  A    between atoms: _481  and  _482
REMARK  200  A    between atoms: _481  and  _484
REMARK  201  A    between atoms: _484  and  _485
REMARK  202  A    between atoms: _489  and  _490
REMARK  203  A    between atoms: _495  and  _497
REMARK  204  A    between atoms: _497  and  _498
REMARK  205  A    between atoms: _497  and  _500
REMARK  206  A    between atoms: _503  and  _505
REMARK  207  A    between atoms: _505  and  _506
REMARK  208  A    between atoms: _505  and  _508
REMARK  209  A    between atoms: _508  and  _509
REMARK  210  A    between atoms: _514  and  _516
REMARK  211  A    between atoms: _516  and  _517
REMARK  212  A    between atoms: _516  and  _519
REMARK  213  A    between atoms: _519  and  _520
REMARK  214  A    between atoms: _523  and  _525
REMARK  215  A    between atoms: _525  and  _526
REMARK  216  A    between atoms: _525  and  _528
REMARK  217  A    between atoms: _528  and  _529
REMARK  218  A    between atoms: _532  and  _534
REMARK  219  A    between atoms: _534  and  _535
REMARK  220  A    between atoms: _537  and  _539
REMARK  221  A    between atoms: _539  and  _540
REMARK  222  A    between atoms: _539  and  _542
REMARK  223  A    between atoms: _542  and  _543
REMARK  224  A    between atoms: _543  and  _544
REMARK  225  A    between atoms: _544  and  _545
REMARK  226  A    between atoms: _554  and  _556
REMARK  227  A    between atoms: _556  and  _557
REMARK  228  A    between atoms: _556  and  _559
REMARK  229  A    between atoms: _559  and  _560
REMARK                            x       y       z     vdW  Elec       q    Type
REMARK                         _______ _______ _______ _____ _____    ______ ____
ROOT
ATOM      1  O   HOH     1       8.357  15.147  18.265  0.00  0.00    +0.000 OA
ENDROOT
TORSDOF 0
REMARK  Name = ../refined-set-2016/4kb9/4kb9_pocket.pdb
REMARK  229 active torsions:
REMARK  status: ('A' for Active; 'I' for Inactive)
REMARK    1  A    between atoms: _1  and  _3
REMARK    2  A    between atoms: _3  and  _4
REMARK    3  A    between atoms: _3  and  _6
REMARK    4  A    between atoms: _6  and  _7
REMARK    5  A    between atoms: _7  and  _8
REMARK    6  A    between atoms: _8  and  _9
REMARK    7  A    between atoms: _18  and  _20
REMARK    8  A    between atoms: _20  and  _21
REMARK    9  A    between atoms: _20  and  _23
REMARK   10  A    between atoms: _23  and  _24
REMARK   11  A    between atoms: _27  and  _29
REMARK   12  A    between atoms: _29  and  _30
REMARK   13  A    between atoms: _29  and  _32
REMARK   14  A    between atoms: _32  and  _33
REMARK   15  A    between atoms: _36  and  _38
REMARK   16  A    between atoms: _38  and  _39
REMARK   17  A    between atoms: _38  and  _41
REMARK   18  A    between atoms: _41  and  _42
REMARK   19  A    between atoms: _45  and  _47
REMARK   20  A    between atoms: _47  and  _48
REMARK   21  A    between atoms: _47  and  _50
REMARK   22  A    between atoms: _50  and  _51
REMARK   23  A    between atoms: _54  and  _56
REMARK   24  A    between atoms: _56  and  _57
REMARK   25  A    between atoms: _59  and  _61
REMARK   26  A    between atoms: _61  and  _62
REMARK   27  A    between atoms: _65  and  _67
REMARK   28  A    between atoms: _67  and  _68
REMARK   29  A    between atoms: _67  and  _70
REMARK   30  A    between atoms: _70  and  _71
REMARK   31  A    between atoms: _74  and  _76
REMARK   32  A    between atoms: _76  and  _77
REMARK   33  A    between atoms: _76  and  _79
REMARK   34  A    between atoms: _79  and  _80
REMARK   35  A    between atoms: _83  and  _85
REMARK   36  A    between atoms: _85  and  _86
REMARK   37  A    between atoms: _85  and  _88
REMARK   38  A    between atoms: _88  and  _89
REMARK   39  A    between atoms: _92  and  _94
REMARK   40  A    between atoms: _94  and  _95
REMARK   41  A    between atoms: _94  and  _97
REMARK   42  A    between atoms: _100  and  _102
REMARK   43  A    between atoms: _102  and  _103
REMARK   44  A    between atoms: _102  and  _105
REMARK   45  A    between atoms: _105  and  _106
REMARK   46  A    between atoms: _106  and  _107
REMARK   47  A    between atoms: _107  and  _108
REMARK   48  A    between atoms: _108  and  _109
REMARK   49  A    between atoms: _113  and  _115
REMARK   50  A    between atoms: _115  and  _116
REMARK   51  A    between atoms: _115  and  _118
REMARK   52  A    between atoms: _118  and  _119
REMARK   53  A    between atoms: _119  and  _120
REMARK   54  A    between atoms: _122  and  _124
REMARK   55  A    between atoms: _124  and  _125
REMARK   56  A    between atoms: _124  and  _127
REMARK   57  A    between atoms: _127  and  _128
REMARK   58  A    between atoms: _131  and  _133
REMARK   59  A    between atoms: _133  and  _134
REMARK   60  A    between atoms: _136  and  _138
REMARK   61  A    between atoms: _138  and  _139
REMARK   62  A    between atoms: _141  and  _143
REMARK   63  A    between atoms: _143  and  _144
REMARK   64  A    between atoms: _143  and  _146
REMARK   65  A    between atoms: _146  and  _147
REMARK   66  A    between atoms: _150  and  _152
REMARK   67  A    between atoms: _152  and  _153
REMARK   68  A    between atoms: _155  and  _157
REMARK   69  A    between atoms: _157  and  _158
REMARK   70  A    between atoms: _160  and  _162
REMARK   71  A    between atoms: _162  and  _163
REMARK   72  A    between atoms: _162  and  _165
REMARK   73  A    between atoms: _165  and  _166
REMARK   74  A    between atoms: _172  and  _174
REMARK   75  A    between atoms: _174  and  _175
REMARK   76  A    between atoms: _174  and  _177
REMARK   77  A    between atoms: _177  and  _178
REMARK   78  A    between atoms: _181  and  _183
REMARK   79  A    between atoms: _183  and  _184
REMARK   80  A    between atoms: _183  and  _186
REMARK   81  A    between atoms: _189  and  _191
REMARK   82  A    between atoms: _191  and  _192
REMARK   83  A    between atoms: _191  and  _194
REMARK   84  A    between atoms: _194  and  _195
REMARK   85  A    between atoms: _198  and  _200
REMARK   86  A    between atoms: _200  and  _201
REMARK   87  A    between atoms: _200  and  _203
REMARK   88  A    between atoms: _203  and  _204
REMARK   89  A    between atoms: _208  and  _209
REMARK   90  A    between atoms: _214  and  _216
REMARK   91  A    between atoms: _216  and  _217
REMARK   92  A    between atoms: _216  and  _219
REMARK   93  A    between atoms: _222  and  _224
REMARK   94  A    between atoms: _224  and  _225
REMARK   95  A    between atoms: _224  and  _227
REMARK   96  A    between atoms: _227  and  _228
REMARK   97  A    between atoms: _233  and  _235
REMARK   98  A    between atoms: _235  and  _236
REMARK   99  A    between atoms: _235  and  _238
REMARK  100  A    between atoms: _238  and  _239
REMARK  101  A    between atoms: _242  and  _244
REMARK  102  A    between atoms: _244  and  _245
REMARK  103  A    between atoms: _247  and  _249
REMARK  104  A    between atoms: _249  and  _250
REMARK  105  A    between atoms: _249  and  _252
REMARK  106  A    between atoms: _252  and  _253
REMARK  107  A    between atoms: _253  and  _254
REMARK  108  A    between atoms: _254  and  _255
REMARK  109  A    between atoms: _264  and  _266
REMARK  110  A    between atoms: _266  and  _267
REMARK  111  A    between atoms: _266  and  _269
REMARK  112  A    between atoms: _269  and  _270
REMARK  113  A    between atoms: _275  and  _277
REMARK  114  A    between atoms: _277  and  _278
REMARK  115  A    between atoms: _277  and  _280
REMARK  116  A    between atoms: _280  and  _281
REMARK  117  A    between atoms: _281  and  _282
REMARK  118  A    between atoms: _282  and  _283
REMARK  119  A    between atoms: _292  and  _294
REMARK  120  A    between atoms: _294  and  _295
REMARK  121  A    between atoms: _294  and  _297
REMARK  122  A    between atoms: _297  and  _298
REMARK  123  A    between atoms: _301  and  _303
REMARK  124  A    between atoms: _303  and  _304
REMARK  125  A    between atoms: _303  and  _306
REMARK  126  A    between atoms: _306  and  _307
REMARK  127  A    between atoms: _310  and  _312
REMARK  128  A    between atoms: _312  and  _313
REMARK  129  A    between atoms: _312  and  _315
REMARK  130  A    between atoms: _315  and  _316
REMARK  131  A    between atoms: _319  and  _321
REMARK  132  A    between atoms: _321  and  _322
REMARK  133  A    between atoms: _321  and  _324
REMARK  134  A    between atoms: _324  and  _325
REMARK  135  A    between atoms: _328  and  _330
REMARK  136  A    between atoms: _330  and  _331
REMARK  137  A    between atoms: _333  and  _335
REMARK  138  A    between atoms: _335  and  _336
REMARK  139  A    between atoms: _339  and  _341
REMARK  140  A    between atoms: _341  and  _342
REMARK  141  A    between atoms: _341  and  _344
REMARK  142  A    between atoms: _344  and  _345
REMARK  143  A    between atoms: _348  and  _350
REMARK  144  A    between atoms: _350  and  _351
REMARK  145  A    between atoms: _350  and  _353
REMARK  146  A    between atoms: _353  and  _354
REMARK  147  A    between atoms: _357  and  _359
REMARK  148  A    between atoms: _359  and  _360
REMARK  149  A    between atoms: _359  and  _362
REMARK  150  A    between atoms: _362  and  _363
REMARK  151  A    between atoms: _366  and  _368
REMARK  152  A    between atoms: _368  and  _369
REMARK  153  A    between atoms: _368  and  _371
REMARK  154  A    between atoms: _374  and  _376
REMARK  155  A    between atoms: _376  and  _377
REMARK  156  A    between atoms: _376  and  _379
REMARK  157  A    between atoms: _379  and  _380
REMARK  158  A    between atoms: _380  and  _381
REMARK  159  A    between atoms: _381  and  _382
REMARK  160  A    between atoms: _382  and  _383
REMARK  161  A    between atoms: _387  and  _389
REMARK  162  A    between atoms: _389  and  _390
REMARK  163  A    between atoms: _389  and  _392
REMARK  164  A    between atoms: _392  and  _393
REMARK  165  A    between atoms: _393  and  _394
REMARK  166  A    between atoms: _396  and  _398
REMARK  167  A    between atoms: _398  and  _399
REMARK  168  A    between atoms: _398  and  _401
REMARK  169  A    between atoms: _401  and  _402
REMARK  170  A    between atoms: _405  and  _407
REMARK  171  A    between atoms: _407  and  _408
REMARK  172  A    between atoms: _410  and  _412
REMARK  173  A    between atoms: _412  and  _413
REMARK  174  A    between atoms: _415  and  _417
REMARK  175  A    between atoms: _417  and  _418
REMARK  176  A    between atoms: _417  and  _420
REMARK  177  A    between atoms: _420  and  _421
REMARK  178  A    between atoms: _424  and  _426
REMARK  179  A    between atoms: _426  and  _427
REMARK  180  A    between atoms: _429  and  _431
REMARK  181  A    between atoms: _431  and  _432
REMARK  182  A    between atoms: _434  and  _436
REMARK  183  A    between atoms: _436  and  _437
REMARK  184  A    between atoms: _436  and  _439
REMARK  185  A    between atoms: _439  and  _440
REMARK  186  A    between atoms: _446  and  _448
REMARK  187  A    between atoms: _448  and  _449
REMARK  188  A    between atoms: _448  and  _451
REMARK  189  A    between atoms: _451  and  _452
REMARK  190  A    between atoms: _455  and  _457
REMARK  191  A    between atoms: _457  and  _458
REMARK  192  A    between atoms: _457  and  _460
REMARK  193  A    between atoms: _463  and  _465
REMARK  194  A    between atoms: _465  and  _466
REMARK  195  A    between atoms: _465  and  _468
REMARK  196  A    between atoms: _468  and  _469
REMARK  197  A    between atoms: _473  and  _474
REMARK  198  A    between atoms: _479  and  _481
REMARK  199  A    between atoms: _481  and  _482
REMARK  200  A    between atoms: _481  and  _484
REMARK  201  A    between atoms: _484  and  _485
REMARK  202  A    between atoms: _489  and  _490
REMARK  203  A    between atoms: _495  and  _497
REMARK  204  A    between atoms: _497  and  _498
REMARK  205  A    between atoms: _497  and  _500
REMARK  206  A    between atoms: _503  and  _505
REMARK  207  A    between atoms: _505  and  _506
REMARK  208  A    between atoms: _505  and  _508
REMARK  209  A    between atoms: _508  and  _509
REMARK  210  A    between atoms: _514  and  _516
REMARK  211  A    between atoms: _516  and  _517
REMARK  212  A    between atoms: _516  and  _519
REMARK  213  A    between atoms: _519  and  _520
REMARK  214  A    between atoms: _523  and  _525
REMARK  215  A    between atoms: _525  and  _526
REMARK  216  A    between atoms: _525  and  _528
REMARK  217  A    between atoms: _528  and  _529
REMARK  218  A    between atoms: _532  and  _534
REMARK  219  A    between atoms: _534  and  _535
REMARK  220  A    between atoms: _537  and  _539
REMARK  221  A    between atoms: _539  and  _540
REMARK  222  A    between atoms: _539  and  _542
REMARK  223  A    between atoms: _542  and  _543
REMARK  224  A    between atoms: _543  and  _544
REMARK  225  A    between atoms: _544  and  _545
REMARK  226  A    between atoms: _554  and  _556
REMARK  227  A    between atoms: _556  and  _557
REMARK  228  A    between atoms: _556  and  _559
REMARK  229  A    between atoms: _559  and  _560
REMARK                            x       y       z     vdW  Elec       q    Type
REMARK                         _______ _______ _______ _____ _____    ______ ____
ROOT
ATOM      1  O   HOH     1      21.757  19.235  18.267  0.00  0.00    +0.000 OA
ENDROOT
TORSDOF 0
REMARK  Name = ../refined-set-2016/4kb9/4kb9_pocket.pdb
REMARK  229 active torsions:
REMARK  status: ('A' for Active; 'I' for Inactive)
REMARK    1  A    between atoms: _1  and  _3
REMARK    2  A    between atoms: _3  and  _4
REMARK    3  A    between atoms: _3  and  _6
REMARK    4  A    between atoms: _6  and  _7
REMARK    5  A    between atoms: _7  and  _8
REMARK    6  A    between atoms: _8  and  _9
REMARK    7  A    between atoms: _18  and  _20
REMARK    8  A    between atoms: _20  and  _21
REMARK    9  A    between atoms: _20  and  _23
REMARK   10  A    between atoms: _23  and  _24
REMARK   11  A    between atoms: _27  and  _29
REMARK   12  A    between atoms: _29  and  _30
REMARK   13  A    between atoms: _29  and  _32
REMARK   14  A    between atoms: _32  and  _33
REMARK   15  A    between atoms: _36  and  _38
REMARK   16  A    between atoms: _38  and  _39
REMARK   17  A    between atoms: _38  and  _41
REMARK   18  A    between atoms: _41  and  _42
REMARK   19  A    between atoms: _45  and  _47
REMARK   20  A    between atoms: _47  and  _48
REMARK   21  A    between atoms: _47  and  _50
REMARK   22  A    between atoms: _50  and  _51
REMARK   23  A    between atoms: _54  and  _56
REMARK   24  A    between atoms: _56  and  _57
REMARK   25  A    between atoms: _59  and  _61
REMARK   26  A    between atoms: _61  and  _62
REMARK   27  A    between atoms: _65  and  _67
REMARK   28  A    between atoms: _67  and  _68
REMARK   29  A    between atoms: _67  and  _70
REMARK   30  A    between atoms: _70  and  _71
REMARK   31  A    between atoms: _74  and  _76
REMARK   32  A    between atoms: _76  and  _77
REMARK   33  A    between atoms: _76  and  _79
REMARK   34  A    between atoms: _79  and  _80
REMARK   35  A    between atoms: _83  and  _85
REMARK   36  A    between atoms: _85  and  _86
REMARK   37  A    between atoms: _85  and  _88
REMARK   38  A    between atoms: _88  and  _89
REMARK   39  A    between atoms: _92  and  _94
REMARK   40  A    between atoms: _94  and  _95
REMARK   41  A    between atoms: _94  and  _97
REMARK   42  A    between atoms: _100  and  _102
REMARK   43  A    between atoms: _102  and  _103
REMARK   44  A    between atoms: _102  and  _105
REMARK   45  A    between atoms: _105  and  _106
REMARK   46  A    between atoms: _106  and  _107
REMARK   47  A    between atoms: _107  and  _108
REMARK   48  A    between atoms: _108  and  _109
REMARK   49  A    between atoms: _113  and  _115
REMARK   50  A    between atoms: _115  and  _116
REMARK   51  A    between atoms: _115  and  _118
REMARK   52  A    between atoms: _118  and  _119
REMARK   53  A    between atoms: _119  and  _120
REMARK   54  A    between atoms: _122  and  _124
REMARK   55  A    between atoms: _124  and  _125
REMARK   56  A    between atoms: _124  and  _127
REMARK   57  A    between atoms: _127  and  _128
REMARK   58  A    between atoms: _131  and  _133
REMARK   59  A    between atoms: _133  and  _134
REMARK   60  A    between atoms: _136  and  _138
REMARK   61  A    between atoms: _138  and  _139
REMARK   62  A    between atoms: _141  and  _143
REMARK   63  A    between atoms: _143  and  _144
REMARK   64  A    between atoms: _143  and  _146
REMARK   65  A    between atoms: _146  and  _147
REMARK   66  A    between atoms: _150  and  _152
REMARK   67  A    between atoms: _152  and  _153
REMARK   68  A    between atoms: _155  and  _157
REMARK   69  A    between atoms: _157  and  _158
REMARK   70  A    between atoms: _160  and  _162
REMARK   71  A    between atoms: _162  and  _163
REMARK   72  A    between atoms: _162  and  _165
REMARK   73  A    between atoms: _165  and  _166
REMARK   74  A    between atoms: _172  and  _174
REMARK   75  A    between atoms: _174  and  _175
REMARK   76  A    between atoms: _174  and  _177
REMARK   77  A    between atoms: _177  and  _178
REMARK   78  A    between atoms: _181  and  _183
REMARK   79  A    between atoms: _183  and  _184
REMARK   80  A    between atoms: _183  and  _186
REMARK   81  A    between atoms: _189  and  _191
REMARK   82  A    between atoms: _191  and  _192
REMARK   83  A    between atoms: _191  and  _194
REMARK   84  A    between atoms: _194  and  _195
REMARK   85  A    between atoms: _198  and  _200
REMARK   86  A    between atoms: _200  and  _201
REMARK   87  A    between atoms: _200  and  _203
REMARK   88  A    between atoms: _203  and  _204
REMARK   89  A    between atoms: _208  and  _209
REMARK   90  A    between atoms: _214  and  _216
REMARK   91  A    between atoms: _216  and  _217
REMARK   92  A    between atoms: _216  and  _219
REMARK   93  A    between atoms: _222  and  _224
REMARK   94  A    between atoms: _224  and  _225
REMARK   95  A    between atoms: _224  and  _227
REMARK   96  A    between atoms: _227  and  _228
REMARK   97  A    between atoms: _233  and  _235
REMARK   98  A    between atoms: _235  and  _236
REMARK   99  A    between atoms: _235  and  _238
REMARK  100  A    between atoms: _238  and  _239
REMARK  101  A    between atoms: _242  and  _244
REMARK  102  A    between atoms: _244  and  _245
REMARK  103  A    between atoms: _247  and  _249
REMARK  104  A    between atoms: _249  and  _250
REMARK  105  A    between atoms: _249  and  _252
REMARK  106  A    between atoms: _252  and  _253
REMARK  107  A    between atoms: _253  and  _254
REMARK  108  A    between atoms: _254  and  _255
REMARK  109  A    between atoms: _264  and  _266
REMARK  110  A    between atoms: _266  and  _267
REMARK  111  A    between atoms: _266  and  _269
REMARK  112  A    between atoms: _269  and  _270
REMARK  113  A    between atoms: _275  and  _277
REMARK  114  A    between atoms: _277  and  _278
REMARK  115  A    between atoms: _277  and  _280
REMARK  116  A    between atoms: _280  and  _281
REMARK  117  A    between atoms: _281  and  _282
REMARK  118  A    between atoms: _282  and  _283
REMARK  119  A    between atoms: _292  and  _294
REMARK  120  A    between atoms: _294  and  _295
REMARK  121  A    between atoms: _294  and  _297
REMARK  122  A    between atoms: _297  and  _298
REMARK  123  A    between atoms: _301  and  _303
REMARK  124  A    between atoms: _303  and  _304
REMARK  125  A    between atoms: _303  and  _306
REMARK  126  A    between atoms: _306  and  _307
REMARK  127  A    between atoms: _310  and  _312
REMARK  128  A    between atoms: _312  and  _313
REMARK  129  A    between atoms: _312  and  _315
REMARK  130  A    between atoms: _315  and  _316
REMARK  131  A    between atoms: _319  and  _321
REMARK  132  A    between atoms: _321  and  _322
REMARK  133  A    between atoms: _321  and  _324
REMARK  134  A    between atoms: _324  and  _325
REMARK  135  A    between atoms: _328  and  _330
REMARK  136  A    between atoms: _330  and  _331
REMARK  137  A    between atoms: _333  and  _335
REMARK  138  A    between atoms: _335  and  _336
REMARK  139  A    between atoms: _339  and  _341
REMARK  140  A    between atoms: _341  and  _342
REMARK  141  A    between atoms: _341  and  _344
REMARK  142  A    between atoms: _344  and  _345
REMARK  143  A    between atoms: _348  and  _350
REMARK  144  A    between atoms: _350  and  _351
REMARK  145  A    between atoms: _350  and  _353
REMARK  146  A    between atoms: _353  and  _354
REMARK  147  A    between atoms: _357  and  _359
REMARK  148  A    between atoms: _359  and  _360
REMARK  149  A    between atoms: _359  and  _362
REMARK  150  A    between atoms: _362  and  _363
REMARK  151  A    between atoms: _366  and  _368
REMARK  152  A    between atoms: _368  and  _369
REMARK  153  A    between atoms: _368  and  _371
REMARK  154  A    between atoms: _374  and  _376
REMARK  155  A    between atoms: _376  and  _377
REMARK  156  A    between atoms: _376  and  _379
REMARK  157  A    between atoms: _379  and  _380
REMARK  158  A    between atoms: _380  and  _381
REMARK  159  A    between atoms: _381  and  _382
REMARK  160  A    between atoms: _382  and  _383
REMARK  161  A    between atoms: _387  and  _389
REMARK  162  A    between atoms: _389  and  _390
REMARK  163  A    between atoms: _389  and  _392
REMARK  164  A    between atoms: _392  and  _393
REMARK  165  A    between atoms: _393  and  _394
REMARK  166  A    between atoms: _396  and  _398
REMARK  167  A    between atoms: _398  and  _399
REMARK  168  A    between atoms: _398  and  _401
REMARK  169  A    between atoms: _401  and  _402
REMARK  170  A    between atoms: _405  and  _407
REMARK  171  A    between atoms: _407  and  _408
REMARK  172  A    between atoms: _410  and  _412
REMARK  173  A    between atoms: _412  and  _413
REMARK  174  A    between atoms: _415  and  _417
REMARK  175  A    between atoms: _417  and  _418
REMARK  176  A    between atoms: _417  and  _420
REMARK  177  A    between atoms: _420  and  _421
REMARK  178  A    between atoms: _424  and  _426
REMARK  179  A    between atoms: _426  and  _427
REMARK  180  A    between atoms: _429  and  _431
REMARK  181  A    between atoms: _431  and  _432
REMARK  182  A    between atoms: _434  and  _436
REMARK  183  A    between atoms: _436  and  _437
REMARK  184  A    between atoms: _436  and  _439
REMARK  185  A    between atoms: _439  and  _440
REMARK  186  A    between atoms: _446  and  _448
REMARK  187  A    between atoms: _448  and  _449
REMARK  188  A    between atoms: _448  and  _451
REMARK  189  A    between atoms: _451  and  _452
REMARK  190  A    between atoms: _455  and  _457
REMARK  191  A    between atoms: _457  and  _458
REMARK  192  A    between atoms: _457  and  _460
REMARK  193  A    between atoms: _463  and  _465
REMARK  194  A    between atoms: _465  and  _466
REMARK  195  A    between atoms: _465  and  _468
REMARK  196  A    between atoms: _468  and  _469
REMARK  197  A    between atoms: _473  and  _474
REMARK  198  A    between atoms: _479  and  _481
REMARK  199  A    between atoms: _481  and  _482
REMARK  200  A    between atoms: _481  and  _484
REMARK  201  A    between atoms: _484  and  _485
REMARK  202  A    between atoms: _489  and  _490
REMARK  203  A    between atoms: _495  and  _497
REMARK  204  A    between atoms: _497  and  _498
REMARK  205  A    between atoms: _497  and  _500
REMARK  206  A    between atoms: _503  and  _505
REMARK  207  A    between atoms: _505  and  _506
REMARK  208  A    between atoms: _505  and  _508
REMARK  209  A    between atoms: _508  and  _509
REMARK  210  A    between atoms: _514  and  _516
REMARK  211  A    between atoms: _516  and  _517
REMARK  212  A    between atoms: _516  and  _519
REMARK  213  A    between atoms: _519  and  _520
REMARK  214  A    between atoms: _523  and  _525
REMARK  215  A    between atoms: _525  and  _526
REMARK  216  A    between atoms: _525  and  _528
REMARK  217  A    between atoms: _528  and  _529
REMARK  218  A    between atoms: _532  and  _534
REMARK  219  A    between atoms: _534  and  _535
REMARK  220  A    between atoms: _537  and  _539
REMARK  221  A    between atoms: _539  and  _540
REMARK  222  A    between atoms: _539  and  _542
REMARK  223  A    between atoms: _542  and  _543
REMARK  224  A    between atoms: _543  and  _544
REMARK  225  A    between atoms: _544  and  _545
REMARK  226  A    between atoms: _554  and  _556
REMARK  227  A    between atoms: _556  and  _557
REMARK  228  A    between atoms: _556  and  _559
REMARK  229  A    between atoms: _559  and  _560
REMARK                            x       y       z     vdW  Elec       q    Type
REMARK                         _______ _______ _______ _____ _____    ______ ____
ROOT
ATOM      1  O   HOH     1      19.891  27.008  26.743  0.00  0.00    +0.000 OA
ENDROOT
TORSDOF 0
REMARK  Name = ../refined-set-2016/4kb9/4kb9_pocket.pdb
REMARK  229 active torsions:
REMARK  status: ('A' for Active; 'I' for Inactive)
REMARK    1  A    between atoms: _1  and  _3
REMARK    2  A    between atoms: _3  and  _4
REMARK    3  A    between atoms: _3  and  _6
REMARK    4  A    between atoms: _6  and  _7
REMARK    5  A    between atoms: _7  and  _8
REMARK    6  A    between atoms: _8  and  _9
REMARK    7  A    between atoms: _18  and  _20
REMARK    8  A    between atoms: _20  and  _21
REMARK    9  A    between atoms: _20  and  _23
REMARK   10  A    between atoms: _23  and  _24
REMARK   11  A    between atoms: _27  and  _29
REMARK   12  A    between atoms: _29  and  _30
REMARK   13  A    between atoms: _29  and  _32
REMARK   14  A    between atoms: _32  and  _33
REMARK   15  A    between atoms: _36  and  _38
REMARK   16  A    between atoms: _38  and  _39
REMARK   17  A    between atoms: _38  and  _41
REMARK   18  A    between atoms: _41  and  _42
REMARK   19  A    between atoms: _45  and  _47
REMARK   20  A    between atoms: _47  and  _48
REMARK   21  A    between atoms: _47  and  _50
REMARK   22  A    between atoms: _50  and  _51
REMARK   23  A    between atoms: _54  and  _56
REMARK   24  A    between atoms: _56  and  _57
REMARK   25  A    between atoms: _59  and  _61
REMARK   26  A    between atoms: _61  and  _62
REMARK   27  A    between atoms: _65  and  _67
REMARK   28  A    between atoms: _67  and  _68
REMARK   29  A    between atoms: _67  and  _70
REMARK   30  A    between atoms: _70  and  _71
REMARK   31  A    between atoms: _74  and  _76
REMARK   32  A    between atoms: _76  and  _77
REMARK   33  A    between atoms: _76  and  _79
REMARK   34  A    between atoms: _79  and  _80
REMARK   35  A    between atoms: _83  and  _85
REMARK   36  A    between atoms: _85  and  _86
REMARK   37  A    between atoms: _85  and  _88
REMARK   38  A    between atoms: _88  and  _89
REMARK   39  A    between atoms: _92  and  _94
REMARK   40  A    between atoms: _94  and  _95
REMARK   41  A    between atoms: _94  and  _97
REMARK   42  A    between atoms: _100  and  _102
REMARK   43  A    between atoms: _102  and  _103
REMARK   44  A    between atoms: _102  and  _105
REMARK   45  A    between atoms: _105  and  _106
REMARK   46  A    between atoms: _106  and  _107
REMARK   47  A    between atoms: _107  and  _108
REMARK   48  A    between atoms: _108  and  _109
REMARK   49  A    between atoms: _113  and  _115
REMARK   50  A    between atoms: _115  and  _116
REMARK   51  A    between atoms: _115  and  _118
REMARK   52  A    between atoms: _118  and  _119
REMARK   53  A    between atoms: _119  and  _120
REMARK   54  A    between atoms: _122  and  _124
REMARK   55  A    between atoms: _124  and  _125
REMARK   56  A    between atoms: _124  and  _127
REMARK   57  A    between atoms: _127  and  _128
REMARK   58  A    between atoms: _131  and  _133
REMARK   59  A    between atoms: _133  and  _134
REMARK   60  A    between atoms: _136  and  _138
REMARK   61  A    between atoms: _138  and  _139
REMARK   62  A    between atoms: _141  and  _143
REMARK   63  A    between atoms: _143  and  _144
REMARK   64  A    between atoms: _143  and  _146
REMARK   65  A    between atoms: _146  and  _147
REMARK   66  A    between atoms: _150  and  _152
REMARK   67  A    between atoms: _152  and  _153
REMARK   68  A    between atoms: _155  and  _157
REMARK   69  A    between atoms: _157  and  _158
REMARK   70  A    between atoms: _160  and  _162
REMARK   71  A    between atoms: _162  and  _163
REMARK   72  A    between atoms: _162  and  _165
REMARK   73  A    between atoms: _165  and  _166
REMARK   74  A    between atoms: _172  and  _174
REMARK   75  A    between atoms: _174  and  _175
REMARK   76  A    between atoms: _174  and  _177
REMARK   77  A    between atoms: _177  and  _178
REMARK   78  A    between atoms: _181  and  _183
REMARK   79  A    between atoms: _183  and  _184
REMARK   80  A    between atoms: _183  and  _186
REMARK   81  A    between atoms: _189  and  _191
REMARK   82  A    between atoms: _191  and  _192
REMARK   83  A    between atoms: _191  and  _194
REMARK   84  A    between atoms: _194  and  _195
REMARK   85  A    between atoms: _198  and  _200
REMARK   86  A    between atoms: _200  and  _201
REMARK   87  A    between atoms: _200  and  _203
REMARK   88  A    between atoms: _203  and  _204
REMARK   89  A    between atoms: _208  and  _209
REMARK   90  A    between atoms: _214  and  _216
REMARK   91  A    between atoms: _216  and  _217
REMARK   92  A    between atoms: _216  and  _219
REMARK   93  A    between atoms: _222  and  _224
REMARK   94  A    between atoms: _224  and  _225
REMARK   95  A    between atoms: _224  and  _227
REMARK   96  A    between atoms: _227  and  _228
REMARK   97  A    between atoms: _233  and  _235
REMARK   98  A    between atoms: _235  and  _236
REMARK   99  A    between atoms: _235  and  _238
REMARK  100  A    between atoms: _238  and  _239
REMARK  101  A    between atoms: _242  and  _244
REMARK  102  A    between atoms: _244  and  _245
REMARK  103  A    between atoms: _247  and  _249
REMARK  104  A    between atoms: _249  and  _250
REMARK  105  A    between atoms: _249  and  _252
REMARK  106  A    between atoms: _252  and  _253
REMARK  107  A    between atoms: _253  and  _254
REMARK  108  A    between atoms: _254  and  _255
REMARK  109  A    between atoms: _264  and  _266
REMARK  110  A    between atoms: _266  and  _267
REMARK  111  A    between atoms: _266  and  _269
REMARK  112  A    between atoms: _269  and  _270
REMARK  113  A    between atoms: _275  and  _277
REMARK  114  A    between atoms: _277  and  _278
REMARK  115  A    between atoms: _277  and  _280
REMARK  116  A    between atoms: _280  and  _281
REMARK  117  A    between atoms: _281  and  _282
REMARK  118  A    between atoms: _282  and  _283
REMARK  119  A    between atoms: _292  and  _294
REMARK  120  A    between atoms: _294  and  _295
REMARK  121  A    between atoms: _294  and  _297
REMARK  122  A    between atoms: _297  and  _298
REMARK  123  A    between atoms: _301  and  _303
REMARK  124  A    between atoms: _303  and  _304
REMARK  125  A    between atoms: _303  and  _306
REMARK  126  A    between atoms: _306  and  _307
REMARK  127  A    between atoms: _310  and  _312
REMARK  128  A    between atoms: _312  and  _313
REMARK  129  A    between atoms: _312  and  _315
REMARK  130  A    between atoms: _315  and  _316
REMARK  131  A    between atoms: _319  and  _321
REMARK  132  A    between atoms: _321  and  _322
REMARK  133  A    between atoms: _321  and  _324
REMARK  134  A    between atoms: _324  and  _325
REMARK  135  A    between atoms: _328  and  _330
REMARK  136  A    between atoms: _330  and  _331
REMARK  137  A    between atoms: _333  and  _335
REMARK  138  A    between atoms: _335  and  _336
REMARK  139  A    between atoms: _339  and  _341
REMARK  140  A    between atoms: _341  and  _342
REMARK  141  A    between atoms: _341  and  _344
REMARK  142  A    between atoms: _344  and  _345
REMARK  143  A    between atoms: _348  and  _350
REMARK  144  A    between atoms: _350  and  _351
REMARK  145  A    between atoms: _350  and  _353
REMARK  146  A    between atoms: _353  and  _354
REMARK  147  A    between atoms: _357  and  _359
REMARK  148  A    between atoms: _359  and  _360
REMARK  149  A    between atoms: _359  and  _362
REMARK  150  A    between atoms: _362  and  _363
REMARK  151  A    between atoms: _366  and  _368
REMARK  152  A    between atoms: _368  and  _369
REMARK  153  A    between atoms: _368  and  _371
REMARK  154  A    between atoms: _374  and  _376
REMARK  155  A    between atoms: _376  and  _377
REMARK  156  A    between atoms: _376  and  _379
REMARK  157  A    between atoms: _379  and  _380
REMARK  158  A    between atoms: _380  and  _381
REMARK  159  A    between atoms: _381  and  _382
REMARK  160  A    between atoms: _382  and  _383
REMARK  161  A    between atoms: _387  and  _389
REMARK  162  A    between atoms: _389  and  _390
REMARK  163  A    between atoms: _389  and  _392
REMARK  164  A    between atoms: _392  and  _393
REMARK  165  A    between atoms: _393  and  _394
REMARK  166  A    between atoms: _396  and  _398
REMARK  167  A    between atoms: _398  and  _399
REMARK  168  A    between atoms: _398  and  _401
REMARK  169  A    between atoms: _401  and  _402
REMARK  170  A    between atoms: _405  and  _407
REMARK  171  A    between atoms: _407  and  _408
REMARK  172  A    between atoms: _410  and  _412
REMARK  173  A    between atoms: _412  and  _413
REMARK  174  A    between atoms: _415  and  _417
REMARK  175  A    between atoms: _417  and  _418
REMARK  176  A    between atoms: _417  and  _420
REMARK  177  A    between atoms: _420  and  _421
REMARK  178  A    between atoms: _424  and  _426
REMARK  179  A    between atoms: _426  and  _427
REMARK  180  A    between atoms: _429  and  _431
REMARK  181  A    between atoms: _431  and  _432
REMARK  182  A    between atoms: _434  and  _436
REMARK  183  A    between atoms: _436  and  _437
REMARK  184  A    between atoms: _436  and  _439
REMARK  185  A    between atoms: _439  and  _440
REMARK  186  A    between atoms: _446  and  _448
REMARK  187  A    between atoms: _448  and  _449
REMARK  188  A    between atoms: _448  and  _451
REMARK  189  A    between atoms: _451  and  _452
REMARK  190  A    between atoms: _455  and  _457
REMARK  191  A    between atoms: _457  and  _458
REMARK  192  A    between atoms: _457  and  _460
REMARK  193  A    between atoms: _463  and  _465
REMARK  194  A    between atoms: _465  and  _466
REMARK  195  A    between atoms: _465  and  _468
REMARK  196  A    between atoms: _468  and  _469
REMARK  197  A    between atoms: _473  and  _474
REMARK  198  A    between atoms: _479  and  _481
REMARK  199  A    between atoms: _481  and  _482
REMARK  200  A    between atoms: _481  and  _484
REMARK  201  A    between atoms: _484  and  _485
REMARK  202  A    between atoms: _489  and  _490
REMARK  203  A    between atoms: _495  and  _497
REMARK  204  A    between atoms: _497  and  _498
REMARK  205  A    between atoms: _497  and  _500
REMARK  206  A    between atoms: _503  and  _505
REMARK  207  A    between atoms: _505  and  _506
REMARK  208  A    between atoms: _505  and  _508
REMARK  209  A    between atoms: _508  and  _509
REMARK  210  A    between atoms: _514  and  _516
REMARK  211  A    between atoms: _516  and  _517
REMARK  212  A    between atoms: _516  and  _519
REMARK  213  A    between atoms: _519  and  _520
REMARK  214  A    between atoms: _523  and  _525
REMARK  215  A    between atoms: _525  and  _526
REMARK  216  A    between atoms: _525  and  _528
REMARK  217  A    between atoms: _528  and  _529
REMARK  218  A    between atoms: _532  and  _534
REMARK  219  A    between atoms: _534  and  _535
REMARK  220  A    between atoms: _537  and  _539
REMARK  221  A    between atoms: _539  and  _540
REMARK  222  A    between atoms: _539  and  _542
REMARK  223  A    between atoms: _542  and  _543
REMARK  224  A    between atoms: _543  and  _544
REMARK  225  A    between atoms: _544  and  _545
REMARK  226  A    between atoms: _554  and  _556
REMARK  227  A    between atoms: _556  and  _557
REMARK  228  A    between atoms: _556  and  _559
REMARK  229  A    between atoms: _559  and  _560
REMARK                            x       y       z     vdW  Elec       q    Type
REMARK                         _______ _______ _______ _____ _____    ______ ____
ROOT
ATOM      1  O   HOH     1      20.460  20.904  16.417  0.00  0.00    +0.000 OA
ENDROOT
TORSDOF 0
REMARK  Name = ../refined-set-2016/4kb9/4kb9_pocket.pdb
REMARK  229 active torsions:
REMARK  status: ('A' for Active; 'I' for Inactive)
REMARK    1  A    between atoms: _1  and  _3
REMARK    2  A    between atoms: _3  and  _4
REMARK    3  A    between atoms: _3  and  _6
REMARK    4  A    between atoms: _6  and  _7
REMARK    5  A    between atoms: _7  and  _8
REMARK    6  A    between atoms: _8  and  _9
REMARK    7  A    between atoms: _18  and  _20
REMARK    8  A    between atoms: _20  and  _21
REMARK    9  A    between atoms: _20  and  _23
REMARK   10  A    between atoms: _23  and  _24
REMARK   11  A    between atoms: _27  and  _29
REMARK   12  A    between atoms: _29  and  _30
REMARK   13  A    between atoms: _29  and  _32
REMARK   14  A    between atoms: _32  and  _33
REMARK   15  A    between atoms: _36  and  _38
REMARK   16  A    between atoms: _38  and  _39
REMARK   17  A    between atoms: _38  and  _41
REMARK   18  A    between atoms: _41  and  _42
REMARK   19  A    between atoms: _45  and  _47
REMARK   20  A    between atoms: _47  and  _48
REMARK   21  A    between atoms: _47  and  _50
REMARK   22  A    between atoms: _50  and  _51
REMARK   23  A    between atoms: _54  and  _56
REMARK   24  A    between atoms: _56  and  _57
REMARK   25  A    between atoms: _59  and  _61
REMARK   26  A    between atoms: _61  and  _62
REMARK   27  A    between atoms: _65  and  _67
REMARK   28  A    between atoms: _67  and  _68
REMARK   29  A    between atoms: _67  and  _70
REMARK   30  A    between atoms: _70  and  _71
REMARK   31  A    between atoms: _74  and  _76
REMARK   32  A    between atoms: _76  and  _77
REMARK   33  A    between atoms: _76  and  _79
REMARK   34  A    between atoms: _79  and  _80
REMARK   35  A    between atoms: _83  and  _85
REMARK   36  A    between atoms: _85  and  _86
REMARK   37  A    between atoms: _85  and  _88
REMARK   38  A    between atoms: _88  and  _89
REMARK   39  A    between atoms: _92  and  _94
REMARK   40  A    between atoms: _94  and  _95
REMARK   41  A    between atoms: _94  and  _97
REMARK   42  A    between atoms: _100  and  _102
REMARK   43  A    between atoms: _102  and  _103
REMARK   44  A    between atoms: _102  and  _105
REMARK   45  A    between atoms: _105  and  _106
REMARK   46  A    between atoms: _106  and  _107
REMARK   47  A    between atoms: _107  and  _108
REMARK   48  A    between atoms: _108  and  _109
REMARK   49  A    between atoms: _113  and  _115
REMARK   50  A    between atoms: _115  and  _116
REMARK   51  A    between atoms: _115  and  _118
REMARK   52  A    between atoms: _118  and  _119
REMARK   53  A    between atoms: _119  and  _120
REMARK   54  A    between atoms: _122  and  _124
REMARK   55  A    between atoms: _124  and  _125
REMARK   56  A    between atoms: _124  and  _127
REMARK   57  A    between atoms: _127  and  _128
REMARK   58  A    between atoms: _131  and  _133
REMARK   59  A    between atoms: _133  and  _134
REMARK   60  A    between atoms: _136  and  _138
REMARK   61  A    between atoms: _138  and  _139
REMARK   62  A    between atoms: _141  and  _143
REMARK   63  A    between atoms: _143  and  _144
REMARK   64  A    between atoms: _143  and  _146
REMARK   65  A    between atoms: _146  and  _147
REMARK   66  A    between atoms: _150  and  _152
REMARK   67  A    between atoms: _152  and  _153
REMARK   68  A    between atoms: _155  and  _157
REMARK   69  A    between atoms: _157  and  _158
REMARK   70  A    between atoms: _160  and  _162
REMARK   71  A    between atoms: _162  and  _163
REMARK   72  A    between atoms: _162  and  _165
REMARK   73  A    between atoms: _165  and  _166
REMARK   74  A    between atoms: _172  and  _174
REMARK   75  A    between atoms: _174  and  _175
REMARK   76  A    between atoms: _174  and  _177
REMARK   77  A    between atoms: _177  and  _178
REMARK   78  A    between atoms: _181  and  _183
REMARK   79  A    between atoms: _183  and  _184
REMARK   80  A    between atoms: _183  and  _186
REMARK   81  A    between atoms: _189  and  _191
REMARK   82  A    between atoms: _191  and  _192
REMARK   83  A    between atoms: _191  and  _194
REMARK   84  A    between atoms: _194  and  _195
REMARK   85  A    between atoms: _198  and  _200
REMARK   86  A    between atoms: _200  and  _201
REMARK   87  A    between atoms: _200  and  _203
REMARK   88  A    between atoms: _203  and  _204
REMARK   89  A    between atoms: _208  and  _209
REMARK   90  A    between atoms: _214  and  _216
REMARK   91  A    between atoms: _216  and  _217
REMARK   92  A    between atoms: _216  and  _219
REMARK   93  A    between atoms: _222  and  _224
REMARK   94  A    between atoms: _224  and  _225
REMARK   95  A    between atoms: _224  and  _227
REMARK   96  A    between atoms: _227  and  _228
REMARK   97  A    between atoms: _233  and  _235
REMARK   98  A    between atoms: _235  and  _236
REMARK   99  A    between atoms: _235  and  _238
REMARK  100  A    between atoms: _238  and  _239
REMARK  101  A    between atoms: _242  and  _244
REMARK  102  A    between atoms: _244  and  _245
REMARK  103  A    between atoms: _247  and  _249
REMARK  104  A    between atoms: _249  and  _250
REMARK  105  A    between atoms: _249  and  _252
REMARK  106  A    between atoms: _252  and  _253
REMARK  107  A    between atoms: _253  and  _254
REMARK  108  A    between atoms: _254  and  _255
REMARK  109  A    between atoms: _264  and  _266
REMARK  110  A    between atoms: _266  and  _267
REMARK  111  A    between atoms: _266  and  _269
REMARK  112  A    between atoms: _269  and  _270
REMARK  113  A    between atoms: _275  and  _277
REMARK  114  A    between atoms: _277  and  _278
REMARK  115  A    between atoms: _277  and  _280
REMARK  116  A    between atoms: _280  and  _281
REMARK  117  A    between atoms: _281  and  _282
REMARK  118  A    between atoms: _282  and  _283
REMARK  119  A    between atoms: _292  and  _294
REMARK  120  A    between atoms: _294  and  _295
REMARK  121  A    between atoms: _294  and  _297
REMARK  122  A    between atoms: _297  and  _298
REMARK  123  A    between atoms: _301  and  _303
REMARK  124  A    between atoms: _303  and  _304
REMARK  125  A    between atoms: _303  and  _306
REMARK  126  A    between atoms: _306  and  _307
REMARK  127  A    between atoms: _310  and  _312
REMARK  128  A    between atoms: _312  and  _313
REMARK  129  A    between atoms: _312  and  _315
REMARK  130  A    between atoms: _315  and  _316
REMARK  131  A    between atoms: _319  and  _321
REMARK  132  A    between atoms: _321  and  _322
REMARK  133  A    between atoms: _321  and  _324
REMARK  134  A    between atoms: _324  and  _325
REMARK  135  A    between atoms: _328  and  _330
REMARK  136  A    between atoms: _330  and  _331
REMARK  137  A    between atoms: _333  and  _335
REMARK  138  A    between atoms: _335  and  _336
REMARK  139  A    between atoms: _339  and  _341
REMARK  140  A    between atoms: _341  and  _342
REMARK  141  A    between atoms: _341  and  _344
REMARK  142  A    between atoms: _344  and  _345
REMARK  143  A    between atoms: _348  and  _350
REMARK  144  A    between atoms: _350  and  _351
REMARK  145  A    between atoms: _350  and  _353
REMARK  146  A    between atoms: _353  and  _354
REMARK  147  A    between atoms: _357  and  _359
REMARK  148  A    between atoms: _359  and  _360
REMARK  149  A    between atoms: _359  and  _362
REMARK  150  A    between atoms: _362  and  _363
REMARK  151  A    between atoms: _366  and  _368
REMARK  152  A    between atoms: _368  and  _369
REMARK  153  A    between atoms: _368  and  _371
REMARK  154  A    between atoms: _374  and  _376
REMARK  155  A    between atoms: _376  and  _377
REMARK  156  A    between atoms: _376  and  _379
REMARK  157  A    between atoms: _379  and  _380
REMARK  158  A    between atoms: _380  and  _381
REMARK  159  A    between atoms: _381  and  _382
REMARK  160  A    between atoms: _382  and  _383
REMARK  161  A    between atoms: _387  and  _389
REMARK  162  A    between atoms: _389  and  _390
REMARK  163  A    between atoms: _389  and  _392
REMARK  164  A    between atoms: _392  and  _393
REMARK  165  A    between atoms: _393  and  _394
REMARK  166  A    between atoms: _396  and  _398
REMARK  167  A    between atoms: _398  and  _399
REMARK  168  A    between atoms: _398  and  _401
REMARK  169  A    between atoms: _401  and  _402
REMARK  170  A    between atoms: _405  and  _407
REMARK  171  A    between atoms: _407  and  _408
REMARK  172  A    between atoms: _410  and  _412
REMARK  173  A    between atoms: _412  and  _413
REMARK  174  A    between atoms: _415  and  _417
REMARK  175  A    between atoms: _417  and  _418
REMARK  176  A    between atoms: _417  and  _420
REMARK  177  A    between atoms: _420  and  _421
REMARK  178  A    between atoms: _424  and  _426
REMARK  179  A    between atoms: _426  and  _427
REMARK  180  A    between atoms: _429  and  _431
REMARK  181  A    between atoms: _431  and  _432
REMARK  182  A    between atoms: _434  and  _436
REMARK  183  A    between atoms: _436  and  _437
REMARK  184  A    between atoms: _436  and  _439
REMARK  185  A    between atoms: _439  and  _440
REMARK  186  A    between atoms: _446  and  _448
REMARK  187  A    between atoms: _448  and  _449
REMARK  188  A    between atoms: _448  and  _451
REMARK  189  A    between atoms: _451  and  _452
REMARK  190  A    between atoms: _455  and  _457
REMARK  191  A    between atoms: _457  and  _458
REMARK  192  A    between atoms: _457  and  _460
REMARK  193  A    between atoms: _463  and  _465
REMARK  194  A    between atoms: _465  and  _466
REMARK  195  A    between atoms: _465  and  _468
REMARK  196  A    between atoms: _468  and  _469
REMARK  197  A    between atoms: _473  and  _474
REMARK  198  A    between atoms: _479  and  _481
REMARK  199  A    between atoms: _481  and  _482
REMARK  200  A    between atoms: _481  and  _484
REMARK  201  A    between atoms: _484  and  _485
REMARK  202  A    between atoms: _489  and  _490
REMARK  203  A    between atoms: _495  and  _497
REMARK  204  A    between atoms: _497  and  _498
REMARK  205  A    between atoms: _497  and  _500
REMARK  206  A    between atoms: _503  and  _505
REMARK  207  A    between atoms: _505  and  _506
REMARK  208  A    between atoms: _505  and  _508
REMARK  209  A    between atoms: _508  and  _509
REMARK  210  A    between atoms: _514  and  _516
REMARK  211  A    between atoms: _516  and  _517
REMARK  212  A    between atoms: _516  and  _519
REMARK  213  A    between atoms: _519  and  _520
REMARK  214  A    between atoms: _523  and  _525
REMARK  215  A    between atoms: _525  and  _526
REMARK  216  A    between atoms: _525  and  _528
REMARK  217  A    between atoms: _528  and  _529
REMARK  218  A    between atoms: _532  and  _534
REMARK  219  A    between atoms: _534  and  _535
REMARK  220  A    between atoms: _537  and  _539
REMARK  221  A    between atoms: _539  and  _540
REMARK  222  A    between atoms: _539  and  _542
REMARK  223  A    between atoms: _542  and  _543
REMARK  224  A    between atoms: _543  and  _544
REMARK  225  A    between atoms: _544  and  _545
REMARK  226  A    between atoms: _554  and  _556
REMARK  227  A    between atoms: _556  and  _557
REMARK  228  A    between atoms: _556  and  _559
REMARK  229  A    between atoms: _559  and  _560
REMARK                            x       y       z     vdW  Elec       q    Type
REMARK                         _______ _______ _______ _____ _____    ______ ____
ROOT
ATOM      1  O   HOH     1      18.192  28.362  16.555  0.00  0.00    +0.000 OA
ENDROOT
TORSDOF 0
REMARK  Name = ../refined-set-2016/4kb9/4kb9_pocket.pdb
REMARK  229 active torsions:
REMARK  status: ('A' for Active; 'I' for Inactive)
REMARK    1  A    between atoms: _1  and  _3
REMARK    2  A    between atoms: _3  and  _4
REMARK    3  A    between atoms: _3  and  _6
REMARK    4  A    between atoms: _6  and  _7
REMARK    5  A    between atoms: _7  and  _8
REMARK    6  A    between atoms: _8  and  _9
REMARK    7  A    between atoms: _18  and  _20
REMARK    8  A    between atoms: _20  and  _21
REMARK    9  A    between atoms: _20  and  _23
REMARK   10  A    between atoms: _23  and  _24
REMARK   11  A    between atoms: _27  and  _29
REMARK   12  A    between atoms: _29  and  _30
REMARK   13  A    between atoms: _29  and  _32
REMARK   14  A    between atoms: _32  and  _33
REMARK   15  A    between atoms: _36  and  _38
REMARK   16  A    between atoms: _38  and  _39
REMARK   17  A    between atoms: _38  and  _41
REMARK   18  A    between atoms: _41  and  _42
REMARK   19  A    between atoms: _45  and  _47
REMARK   20  A    between atoms: _47  and  _48
REMARK   21  A    between atoms: _47  and  _50
REMARK   22  A    between atoms: _50  and  _51
REMARK   23  A    between atoms: _54  and  _56
REMARK   24  A    between atoms: _56  and  _57
REMARK   25  A    between atoms: _59  and  _61
REMARK   26  A    between atoms: _61  and  _62
REMARK   27  A    between atoms: _65  and  _67
REMARK   28  A    between atoms: _67  and  _68
REMARK   29  A    between atoms: _67  and  _70
REMARK   30  A    between atoms: _70  and  _71
REMARK   31  A    between atoms: _74  and  _76
REMARK   32  A    between atoms: _76  and  _77
REMARK   33  A    between atoms: _76  and  _79
REMARK   34  A    between atoms: _79  and  _80
REMARK   35  A    between atoms: _83  and  _85
REMARK   36  A    between atoms: _85  and  _86
REMARK   37  A    between atoms: _85  and  _88
REMARK   38  A    between atoms: _88  and  _89
REMARK   39  A    between atoms: _92  and  _94
REMARK   40  A    between atoms: _94  and  _95
REMARK   41  A    between atoms: _94  and  _97
REMARK   42  A    between atoms: _100  and  _102
REMARK   43  A    between atoms: _102  and  _103
REMARK   44  A    between atoms: _102  and  _105
REMARK   45  A    between atoms: _105  and  _106
REMARK   46  A    between atoms: _106  and  _107
REMARK   47  A    between atoms: _107  and  _108
REMARK   48  A    between atoms: _108  and  _109
REMARK   49  A    between atoms: _113  and  _115
REMARK   50  A    between atoms: _115  and  _116
REMARK   51  A    between atoms: _115  and  _118
REMARK   52  A    between atoms: _118  and  _119
REMARK   53  A    between atoms: _119  and  _120
REMARK   54  A    between atoms: _122  and  _124
REMARK   55  A    between atoms: _124  and  _125
REMARK   56  A    between atoms: _124  and  _127
REMARK   57  A    between atoms: _127  and  _128
REMARK   58  A    between atoms: _131  and  _133
REMARK   59  A    between atoms: _133  and  _134
REMARK   60  A    between atoms: _136  and  _138
REMARK   61  A    between atoms: _138  and  _139
REMARK   62  A    between atoms: _141  and  _143
REMARK   63  A    between atoms: _143  and  _144
REMARK   64  A    between atoms: _143  and  _146
REMARK   65  A    between atoms: _146  and  _147
REMARK   66  A    between atoms: _150  and  _152
REMARK   67  A    between atoms: _152  and  _153
REMARK   68  A    between atoms: _155  and  _157
REMARK   69  A    between atoms: _157  and  _158
REMARK   70  A    between atoms: _160  and  _162
REMARK   71  A    between atoms: _162  and  _163
REMARK   72  A    between atoms: _162  and  _165
REMARK   73  A    between atoms: _165  and  _166
REMARK   74  A    between atoms: _172  and  _174
REMARK   75  A    between atoms: _174  and  _175
REMARK   76  A    between atoms: _174  and  _177
REMARK   77  A    between atoms: _177  and  _178
REMARK   78  A    between atoms: _181  and  _183
REMARK   79  A    between atoms: _183  and  _184
REMARK   80  A    between atoms: _183  and  _186
REMARK   81  A    between atoms: _189  and  _191
REMARK   82  A    between atoms: _191  and  _192
REMARK   83  A    between atoms: _191  and  _194
REMARK   84  A    between atoms: _194  and  _195
REMARK   85  A    between atoms: _198  and  _200
REMARK   86  A    between atoms: _200  and  _201
REMARK   87  A    between atoms: _200  and  _203
REMARK   88  A    between atoms: _203  and  _204
REMARK   89  A    between atoms: _208  and  _209
REMARK   90  A    between atoms: _214  and  _216
REMARK   91  A    between atoms: _216  and  _217
REMARK   92  A    between atoms: _216  and  _219
REMARK   93  A    between atoms: _222  and  _224
REMARK   94  A    between atoms: _224  and  _225
REMARK   95  A    between atoms: _224  and  _227
REMARK   96  A    between atoms: _227  and  _228
REMARK   97  A    between atoms: _233  and  _235
REMARK   98  A    between atoms: _235  and  _236
REMARK   99  A    between atoms: _235  and  _238
REMARK  100  A    between atoms: _238  and  _239
REMARK  101  A    between atoms: _242  and  _244
REMARK  102  A    between atoms: _244  and  _245
REMARK  103  A    between atoms: _247  and  _249
REMARK  104  A    between atoms: _249  and  _250
REMARK  105  A    between atoms: _249  and  _252
REMARK  106  A    between atoms: _252  and  _253
REMARK  107  A    between atoms: _253  and  _254
REMARK  108  A    between atoms: _254  and  _255
REMARK  109  A    between atoms: _264  and  _266
REMARK  110  A    between atoms: _266  and  _267
REMARK  111  A    between atoms: _266  and  _269
REMARK  112  A    between atoms: _269  and  _270
REMARK  113  A    between atoms: _275  and  _277
REMARK  114  A    between atoms: _277  and  _278
REMARK  115  A    between atoms: _277  and  _280
REMARK  116  A    between atoms: _280  and  _281
REMARK  117  A    between atoms: _281  and  _282
REMARK  118  A    between atoms: _282  and  _283
REMARK  119  A    between atoms: _292  and  _294
REMARK  120  A    between atoms: _294  and  _295
REMARK  121  A    between atoms: _294  and  _297
REMARK  122  A    between atoms: _297  and  _298
REMARK  123  A    between atoms: _301  and  _303
REMARK  124  A    between atoms: _303  and  _304
REMARK  125  A    between atoms: _303  and  _306
REMARK  126  A    between atoms: _306  and  _307
REMARK  127  A    between atoms: _310  and  _312
REMARK  128  A    between atoms: _312  and  _313
REMARK  129  A    between atoms: _312  and  _315
REMARK  130  A    between atoms: _315  and  _316
REMARK  131  A    between atoms: _319  and  _321
REMARK  132  A    between atoms: _321  and  _322
REMARK  133  A    between atoms: _321  and  _324
REMARK  134  A    between atoms: _324  and  _325
REMARK  135  A    between atoms: _328  and  _330
REMARK  136  A    between atoms: _330  and  _331
REMARK  137  A    between atoms: _333  and  _335
REMARK  138  A    between atoms: _335  and  _336
REMARK  139  A    between atoms: _339  and  _341
REMARK  140  A    between atoms: _341  and  _342
REMARK  141  A    between atoms: _341  and  _344
REMARK  142  A    between atoms: _344  and  _345
REMARK  143  A    between atoms: _348  and  _350
REMARK  144  A    between atoms: _350  and  _351
REMARK  145  A    between atoms: _350  and  _353
REMARK  146  A    between atoms: _353  and  _354
REMARK  147  A    between atoms: _357  and  _359
REMARK  148  A    between atoms: _359  and  _360
REMARK  149  A    between atoms: _359  and  _362
REMARK  150  A    between atoms: _362  and  _363
REMARK  151  A    between atoms: _366  and  _368
REMARK  152  A    between atoms: _368  and  _369
REMARK  153  A    between atoms: _368  and  _371
REMARK  154  A    between atoms: _374  and  _376
REMARK  155  A    between atoms: _376  and  _377
REMARK  156  A    between atoms: _376  and  _379
REMARK  157  A    between atoms: _379  and  _380
REMARK  158  A    between atoms: _380  and  _381
REMARK  159  A    between atoms: _381  and  _382
REMARK  160  A    between atoms: _382  and  _383
REMARK  161  A    between atoms: _387  and  _389
REMARK  162  A    between atoms: _389  and  _390
REMARK  163  A    between atoms: _389  and  _392
REMARK  164  A    between atoms: _392  and  _393
REMARK  165  A    between atoms: _393  and  _394
REMARK  166  A    between atoms: _396  and  _398
REMARK  167  A    between atoms: _398  and  _399
REMARK  168  A    between atoms: _398  and  _401
REMARK  169  A    between atoms: _401  and  _402
REMARK  170  A    between atoms: _405  and  _407
REMARK  171  A    between atoms: _407  and  _408
REMARK  172  A    between atoms: _410  and  _412
REMARK  173  A    between atoms: _412  and  _413
REMARK  174  A    between atoms: _415  and  _417
REMARK  175  A    between atoms: _417  and  _418
REMARK  176  A    between atoms: _417  and  _420
REMARK  177  A    between atoms: _420  and  _421
REMARK  178  A    between atoms: _424  and  _426
REMARK  179  A    between atoms: _426  and  _427
REMARK  180  A    between atoms: _429  and  _431
REMARK  181  A    between atoms: _431  and  _432
REMARK  182  A    between atoms: _434  and  _436
REMARK  183  A    between atoms: _436  and  _437
REMARK  184  A    between atoms: _436  and  _439
REMARK  185  A    between atoms: _439  and  _440
REMARK  186  A    between atoms: _446  and  _448
REMARK  187  A    between atoms: _448  and  _449
REMARK  188  A    between atoms: _448  and  _451
REMARK  189  A    between atoms: _451  and  _452
REMARK  190  A    between atoms: _455  and  _457
REMARK  191  A    between atoms: _457  and  _458
REMARK  192  A    between atoms: _457  and  _460
REMARK  193  A    between atoms: _463  and  _465
REMARK  194  A    between atoms: _465  and  _466
REMARK  195  A    between atoms: _465  and  _468
REMARK  196  A    between atoms: _468  and  _469
REMARK  197  A    between atoms: _473  and  _474
REMARK  198  A    between atoms: _479  and  _481
REMARK  199  A    between atoms: _481  and  _482
REMARK  200  A    between atoms: _481  and  _484
REMARK  201  A    between atoms: _484  and  _485
REMARK  202  A    between atoms: _489  and  _490
REMARK  203  A    between atoms: _495  and  _497
REMARK  204  A    between atoms: _497  and  _498
REMARK  205  A    between atoms: _497  and  _500
REMARK  206  A    between atoms: _503  and  _505
REMARK  207  A    between atoms: _505  and  _506
REMARK  208  A    between atoms: _505  and  _508
REMARK  209  A    between atoms: _508  and  _509
REMARK  210  A    between atoms: _514  and  _516
REMARK  211  A    between atoms: _516  and  _517
REMARK  212  A    between atoms: _516  and  _519
REMARK  213  A    between atoms: _519  and  _520
REMARK  214  A    between atoms: _523  and  _525
REMARK  215  A    between atoms: _525  and  _526
REMARK  216  A    between atoms: _525  and  _528
REMARK  217  A    between atoms: _528  and  _529
REMARK  218  A    between atoms: _532  and  _534
REMARK  219  A    between atoms: _534  and  _535
REMARK  220  A    between atoms: _537  and  _539
REMARK  221  A    between atoms: _539  and  _540
REMARK  222  A    between atoms: _539  and  _542
REMARK  223  A    between atoms: _542  and  _543
REMARK  224  A    between atoms: _543  and  _544
REMARK  225  A    between atoms: _544  and  _545
REMARK  226  A    between atoms: _554  and  _556
REMARK  227  A    between atoms: _556  and  _557
REMARK  228  A    between atoms: _556  and  _559
REMARK  229  A    between atoms: _559  and  _560
REMARK                            x       y       z     vdW  Elec       q    Type
REMARK                         _______ _______ _______ _____ _____    ______ ____
ROOT
ATOM      1  O   HOH     1       8.884  14.323  21.339  0.00  0.00    +0.000 OA
ENDROOT
TORSDOF 0
REMARK  Name = ../refined-set-2016/4kb9/4kb9_pocket.pdb
REMARK  229 active torsions:
REMARK  status: ('A' for Active; 'I' for Inactive)
REMARK    1  A    between atoms: _1  and  _3
REMARK    2  A    between atoms: _3  and  _4
REMARK    3  A    between atoms: _3  and  _6
REMARK    4  A    between atoms: _6  and  _7
REMARK    5  A    between atoms: _7  and  _8
REMARK    6  A    between atoms: _8  and  _9
REMARK    7  A    between atoms: _18  and  _20
REMARK    8  A    between atoms: _20  and  _21
REMARK    9  A    between atoms: _20  and  _23
REMARK   10  A    between atoms: _23  and  _24
REMARK   11  A    between atoms: _27  and  _29
REMARK   12  A    between atoms: _29  and  _30
REMARK   13  A    between atoms: _29  and  _32
REMARK   14  A    between atoms: _32  and  _33
REMARK   15  A    between atoms: _36  and  _38
REMARK   16  A    between atoms: _38  and  _39
REMARK   17  A    between atoms: _38  and  _41
REMARK   18  A    between atoms: _41  and  _42
REMARK   19  A    between atoms: _45  and  _47
REMARK   20  A    between atoms: _47  and  _48
REMARK   21  A    between atoms: _47  and  _50
REMARK   22  A    between atoms: _50  and  _51
REMARK   23  A    between atoms: _54  and  _56
REMARK   24  A    between atoms: _56  and  _57
REMARK   25  A    between atoms: _59  and  _61
REMARK   26  A    between atoms: _61  and  _62
REMARK   27  A    between atoms: _65  and  _67
REMARK   28  A    between atoms: _67  and  _68
REMARK   29  A    between atoms: _67  and  _70
REMARK   30  A    between atoms: _70  and  _71
REMARK   31  A    between atoms: _74  and  _76
REMARK   32  A    between atoms: _76  and  _77
REMARK   33  A    between atoms: _76  and  _79
REMARK   34  A    between atoms: _79  and  _80
REMARK   35  A    between atoms: _83  and  _85
REMARK   36  A    between atoms: _85  and  _86
REMARK   37  A    between atoms: _85  and  _88
REMARK   38  A    between atoms: _88  and  _89
REMARK   39  A    between atoms: _92  and  _94
REMARK   40  A    between atoms: _94  and  _95
REMARK   41  A    between atoms: _94  and  _97
REMARK   42  A    between atoms: _100  and  _102
REMARK   43  A    between atoms: _102  and  _103
REMARK   44  A    between atoms: _102  and  _105
REMARK   45  A    between atoms: _105  and  _106
REMARK   46  A    between atoms: _106  and  _107
REMARK   47  A    between atoms: _107  and  _108
REMARK   48  A    between atoms: _108  and  _109
REMARK   49  A    between atoms: _113  and  _115
REMARK   50  A    between atoms: _115  and  _116
REMARK   51  A    between atoms: _115  and  _118
REMARK   52  A    between atoms: _118  and  _119
REMARK   53  A    between atoms: _119  and  _120
REMARK   54  A    between atoms: _122  and  _124
REMARK   55  A    between atoms: _124  and  _125
REMARK   56  A    between atoms: _124  and  _127
REMARK   57  A    between atoms: _127  and  _128
REMARK   58  A    between atoms: _131  and  _133
REMARK   59  A    between atoms: _133  and  _134
REMARK   60  A    between atoms: _136  and  _138
REMARK   61  A    between atoms: _138  and  _139
REMARK   62  A    between atoms: _141  and  _143
REMARK   63  A    between atoms: _143  and  _144
REMARK   64  A    between atoms: _143  and  _146
REMARK   65  A    between atoms: _146  and  _147
REMARK   66  A    between atoms: _150  and  _152
REMARK   67  A    between atoms: _152  and  _153
REMARK   68  A    between atoms: _155  and  _157
REMARK   69  A    between atoms: _157  and  _158
REMARK   70  A    between atoms: _160  and  _162
REMARK   71  A    between atoms: _162  and  _163
REMARK   72  A    between atoms: _162  and  _165
REMARK   73  A    between atoms: _165  and  _166
REMARK   74  A    between atoms: _172  and  _174
REMARK   75  A    between atoms: _174  and  _175
REMARK   76  A    between atoms: _174  and  _177
REMARK   77  A    between atoms: _177  and  _178
REMARK   78  A    between atoms: _181  and  _183
REMARK   79  A    between atoms: _183  and  _184
REMARK   80  A    between atoms: _183  and  _186
REMARK   81  A    between atoms: _189  and  _191
REMARK   82  A    between atoms: _191  and  _192
REMARK   83  A    between atoms: _191  and  _194
REMARK   84  A    between atoms: _194  and  _195
REMARK   85  A    between atoms: _198  and  _200
REMARK   86  A    between atoms: _200  and  _201
REMARK   87  A    between atoms: _200  and  _203
REMARK   88  A    between atoms: _203  and  _204
REMARK   89  A    between atoms: _208  and  _209
REMARK   90  A    between atoms: _214  and  _216
REMARK   91  A    between atoms: _216  and  _217
REMARK   92  A    between atoms: _216  and  _219
REMARK   93  A    between atoms: _222  and  _224
REMARK   94  A    between atoms: _224  and  _225
REMARK   95  A    between atoms: _224  and  _227
REMARK   96  A    between atoms: _227  and  _228
REMARK   97  A    between atoms: _233  and  _235
REMARK   98  A    between atoms: _235  and  _236
REMARK   99  A    between atoms: _235  and  _238
REMARK  100  A    between atoms: _238  and  _239
REMARK  101  A    between atoms: _242  and  _244
REMARK  102  A    between atoms: _244  and  _245
REMARK  103  A    between atoms: _247  and  _249
REMARK  104  A    between atoms: _249  and  _250
REMARK  105  A    between atoms: _249  and  _252
REMARK  106  A    between atoms: _252  and  _253
REMARK  107  A    between atoms: _253  and  _254
REMARK  108  A    between atoms: _254  and  _255
REMARK  109  A    between atoms: _264  and  _266
REMARK  110  A    between atoms: _266  and  _267
REMARK  111  A    between atoms: _266  and  _269
REMARK  112  A    between atoms: _269  and  _270
REMARK  113  A    between atoms: _275  and  _277
REMARK  114  A    between atoms: _277  and  _278
REMARK  115  A    between atoms: _277  and  _280
REMARK  116  A    between atoms: _280  and  _281
REMARK  117  A    between atoms: _281  and  _282
REMARK  118  A    between atoms: _282  and  _283
REMARK  119  A    between atoms: _292  and  _294
REMARK  120  A    between atoms: _294  and  _295
REMARK  121  A    between atoms: _294  and  _297
REMARK  122  A    between atoms: _297  and  _298
REMARK  123  A    between atoms: _301  and  _303
REMARK  124  A    between atoms: _303  and  _304
REMARK  125  A    between atoms: _303  and  _306
REMARK  126  A    between atoms: _306  and  _307
REMARK  127  A    between atoms: _310  and  _312
REMARK  128  A    between atoms: _312  and  _313
REMARK  129  A    between atoms: _312  and  _315
REMARK  130  A    between atoms: _315  and  _316
REMARK  131  A    between atoms: _319  and  _321
REMARK  132  A    between atoms: _321  and  _322
REMARK  133  A    between atoms: _321  and  _324
REMARK  134  A    between atoms: _324  and  _325
REMARK  135  A    between atoms: _328  and  _330
REMARK  136  A    between atoms: _330  and  _331
REMARK  137  A    between atoms: _333  and  _335
REMARK  138  A    between atoms: _335  and  _336
REMARK  139  A    between atoms: _339  and  _341
REMARK  140  A    between atoms: _341  and  _342
REMARK  141  A    between atoms: _341  and  _344
REMARK  142  A    between atoms: _344  and  _345
REMARK  143  A    between atoms: _348  and  _350
REMARK  144  A    between atoms: _350  and  _351
REMARK  145  A    between atoms: _350  and  _353
REMARK  146  A    between atoms: _353  and  _354
REMARK  147  A    between atoms: _357  and  _359
REMARK  148  A    between atoms: _359  and  _360
REMARK  149  A    between atoms: _359  and  _362
REMARK  150  A    between atoms: _362  and  _363
REMARK  151  A    between atoms: _366  and  _368
REMARK  152  A    between atoms: _368  and  _369
REMARK  153  A    between atoms: _368  and  _371
REMARK  154  A    between atoms: _374  and  _376
REMARK  155  A    between atoms: _376  and  _377
REMARK  156  A    between atoms: _376  and  _379
REMARK  157  A    between atoms: _379  and  _380
REMARK  158  A    between atoms: _380  and  _381
REMARK  159  A    between atoms: _381  and  _382
REMARK  160  A    between atoms: _382  and  _383
REMARK  161  A    between atoms: _387  and  _389
REMARK  162  A    between atoms: _389  and  _390
REMARK  163  A    between atoms: _389  and  _392
REMARK  164  A    between atoms: _392  and  _393
REMARK  165  A    between atoms: _393  and  _394
REMARK  166  A    between atoms: _396  and  _398
REMARK  167  A    between atoms: _398  and  _399
REMARK  168  A    between atoms: _398  and  _401
REMARK  169  A    between atoms: _401  and  _402
REMARK  170  A    between atoms: _405  and  _407
REMARK  171  A    between atoms: _407  and  _408
REMARK  172  A    between atoms: _410  and  _412
REMARK  173  A    between atoms: _412  and  _413
REMARK  174  A    between atoms: _415  and  _417
REMARK  175  A    between atoms: _417  and  _418
REMARK  176  A    between atoms: _417  and  _420
REMARK  177  A    between atoms: _420  and  _421
REMARK  178  A    between atoms: _424  and  _426
REMARK  179  A    between atoms: _426  and  _427
REMARK  180  A    between atoms: _429  and  _431
REMARK  181  A    between atoms: _431  and  _432
REMARK  182  A    between atoms: _434  and  _436
REMARK  183  A    between atoms: _436  and  _437
REMARK  184  A    between atoms: _436  and  _439
REMARK  185  A    between atoms: _439  and  _440
REMARK  186  A    between atoms: _446  and  _448
REMARK  187  A    between atoms: _448  and  _449
REMARK  188  A    between atoms: _448  and  _451
REMARK  189  A    between atoms: _451  and  _452
REMARK  190  A    between atoms: _455  and  _457
REMARK  191  A    between atoms: _457  and  _458
REMARK  192  A    between atoms: _457  and  _460
REMARK  193  A    between atoms: _463  and  _465
REMARK  194  A    between atoms: _465  and  _466
REMARK  195  A    between atoms: _465  and  _468
REMARK  196  A    between atoms: _468  and  _469
REMARK  197  A    between atoms: _473  and  _474
REMARK  198  A    between atoms: _479  and  _481
REMARK  199  A    between atoms: _481  and  _482
REMARK  200  A    between atoms: _481  and  _484
REMARK  201  A    between atoms: _484  and  _485
REMARK  202  A    between atoms: _489  and  _490
REMARK  203  A    between atoms: _495  and  _497
REMARK  204  A    between atoms: _497  and  _498
REMARK  205  A    between atoms: _497  and  _500
REMARK  206  A    between atoms: _503  and  _505
REMARK  207  A    between atoms: _505  and  _506
REMARK  208  A    between atoms: _505  and  _508
REMARK  209  A    between atoms: _508  and  _509
REMARK  210  A    between atoms: _514  and  _516
REMARK  211  A    between atoms: _516  and  _517
REMARK  212  A    between atoms: _516  and  _519
REMARK  213  A    between atoms: _519  and  _520
REMARK  214  A    between atoms: _523  and  _525
REMARK  215  A    between atoms: _525  and  _526
REMARK  216  A    between atoms: _525  and  _528
REMARK  217  A    between atoms: _528  and  _529
REMARK  218  A    between atoms: _532  and  _534
REMARK  219  A    between atoms: _534  and  _535
REMARK  220  A    between atoms: _537  and  _539
REMARK  221  A    between atoms: _539  and  _540
REMARK  222  A    between atoms: _539  and  _542
REMARK  223  A    between atoms: _542  and  _543
REMARK  224  A    between atoms: _543  and  _544
REMARK  225  A    between atoms: _544  and  _545
REMARK  226  A    between atoms: _554  and  _556
REMARK  227  A    between atoms: _556  and  _557
REMARK  228  A    between atoms: _556  and  _559
REMARK  229  A    between atoms: _559  and  _560
REMARK                            x       y       z     vdW  Elec       q    Type
REMARK                         _______ _______ _______ _____ _____    ______ ____
ROOT
ATOM      1  O   HOH     1      13.471  27.366  11.799  0.00  0.00    +0.000 OA
ENDROOT
TORSDOF 0
REMARK  Name = ../refined-set-2016/4kb9/4kb9_pocket.pdb
REMARK  229 active torsions:
REMARK  status: ('A' for Active; 'I' for Inactive)
REMARK    1  A    between atoms: _1  and  _3
REMARK    2  A    between atoms: _3  and  _4
REMARK    3  A    between atoms: _3  and  _6
REMARK    4  A    between atoms: _6  and  _7
REMARK    5  A    between atoms: _7  and  _8
REMARK    6  A    between atoms: _8  and  _9
REMARK    7  A    between atoms: _18  and  _20
REMARK    8  A    between atoms: _20  and  _21
REMARK    9  A    between atoms: _20  and  _23
REMARK   10  A    between atoms: _23  and  _24
REMARK   11  A    between atoms: _27  and  _29
REMARK   12  A    between atoms: _29  and  _30
REMARK   13  A    between atoms: _29  and  _32
REMARK   14  A    between atoms: _32  and  _33
REMARK   15  A    between atoms: _36  and  _38
REMARK   16  A    between atoms: _38  and  _39
REMARK   17  A    between atoms: _38  and  _41
REMARK   18  A    between atoms: _41  and  _42
REMARK   19  A    between atoms: _45  and  _47
REMARK   20  A    between atoms: _47  and  _48
REMARK   21  A    between atoms: _47  and  _50
REMARK   22  A    between atoms: _50  and  _51
REMARK   23  A    between atoms: _54  and  _56
REMARK   24  A    between atoms: _56  and  _57
REMARK   25  A    between atoms: _59  and  _61
REMARK   26  A    between atoms: _61  and  _62
REMARK   27  A    between atoms: _65  and  _67
REMARK   28  A    between atoms: _67  and  _68
REMARK   29  A    between atoms: _67  and  _70
REMARK   30  A    between atoms: _70  and  _71
REMARK   31  A    between atoms: _74  and  _76
REMARK   32  A    between atoms: _76  and  _77
REMARK   33  A    between atoms: _76  and  _79
REMARK   34  A    between atoms: _79  and  _80
REMARK   35  A    between atoms: _83  and  _85
REMARK   36  A    between atoms: _85  and  _86
REMARK   37  A    between atoms: _85  and  _88
REMARK   38  A    between atoms: _88  and  _89
REMARK   39  A    between atoms: _92  and  _94
REMARK   40  A    between atoms: _94  and  _95
REMARK   41  A    between atoms: _94  and  _97
REMARK   42  A    between atoms: _100  and  _102
REMARK   43  A    between atoms: _102  and  _103
REMARK   44  A    between atoms: _102  and  _105
REMARK   45  A    between atoms: _105  and  _106
REMARK   46  A    between atoms: _106  and  _107
REMARK   47  A    between atoms: _107  and  _108
REMARK   48  A    between atoms: _108  and  _109
REMARK   49  A    between atoms: _113  and  _115
REMARK   50  A    between atoms: _115  and  _116
REMARK   51  A    between atoms: _115  and  _118
REMARK   52  A    between atoms: _118  and  _119
REMARK   53  A    between atoms: _119  and  _120
REMARK   54  A    between atoms: _122  and  _124
REMARK   55  A    between atoms: _124  and  _125
REMARK   56  A    between atoms: _124  and  _127
REMARK   57  A    between atoms: _127  and  _128
REMARK   58  A    between atoms: _131  and  _133
REMARK   59  A    between atoms: _133  and  _134
REMARK   60  A    between atoms: _136  and  _138
REMARK   61  A    between atoms: _138  and  _139
REMARK   62  A    between atoms: _141  and  _143
REMARK   63  A    between atoms: _143  and  _144
REMARK   64  A    between atoms: _143  and  _146
REMARK   65  A    between atoms: _146  and  _147
REMARK   66  A    between atoms: _150  and  _152
REMARK   67  A    between atoms: _152  and  _153
REMARK   68  A    between atoms: _155  and  _157
REMARK   69  A    between atoms: _157  and  _158
REMARK   70  A    between atoms: _160  and  _162
REMARK   71  A    between atoms: _162  and  _163
REMARK   72  A    between atoms: _162  and  _165
REMARK   73  A    between atoms: _165  and  _166
REMARK   74  A    between atoms: _172  and  _174
REMARK   75  A    between atoms: _174  and  _175
REMARK   76  A    between atoms: _174  and  _177
REMARK   77  A    between atoms: _177  and  _178
REMARK   78  A    between atoms: _181  and  _183
REMARK   79  A    between atoms: _183  and  _184
REMARK   80  A    between atoms: _183  and  _186
REMARK   81  A    between atoms: _189  and  _191
REMARK   82  A    between atoms: _191  and  _192
REMARK   83  A    between atoms: _191  and  _194
REMARK   84  A    between atoms: _194  and  _195
REMARK   85  A    between atoms: _198  and  _200
REMARK   86  A    between atoms: _200  and  _201
REMARK   87  A    between atoms: _200  and  _203
REMARK   88  A    between atoms: _203  and  _204
REMARK   89  A    between atoms: _208  and  _209
REMARK   90  A    between atoms: _214  and  _216
REMARK   91  A    between atoms: _216  and  _217
REMARK   92  A    between atoms: _216  and  _219
REMARK   93  A    between atoms: _222  and  _224
REMARK   94  A    between atoms: _224  and  _225
REMARK   95  A    between atoms: _224  and  _227
REMARK   96  A    between atoms: _227  and  _228
REMARK   97  A    between atoms: _233  and  _235
REMARK   98  A    between atoms: _235  and  _236
REMARK   99  A    between atoms: _235  and  _238
REMARK  100  A    between atoms: _238  and  _239
REMARK  101  A    between atoms: _242  and  _244
REMARK  102  A    between atoms: _244  and  _245
REMARK  103  A    between atoms: _247  and  _249
REMARK  104  A    between atoms: _249  and  _250
REMARK  105  A    between atoms: _249  and  _252
REMARK  106  A    between atoms: _252  and  _253
REMARK  107  A    between atoms: _253  and  _254
REMARK  108  A    between atoms: _254  and  _255
REMARK  109  A    between atoms: _264  and  _266
REMARK  110  A    between atoms: _266  and  _267
REMARK  111  A    between atoms: _266  and  _269
REMARK  112  A    between atoms: _269  and  _270
REMARK  113  A    between atoms: _275  and  _277
REMARK  114  A    between atoms: _277  and  _278
REMARK  115  A    between atoms: _277  and  _280
REMARK  116  A    between atoms: _280  and  _281
REMARK  117  A    between atoms: _281  and  _282
REMARK  118  A    between atoms: _282  and  _283
REMARK  119  A    between atoms: _292  and  _294
REMARK  120  A    between atoms: _294  and  _295
REMARK  121  A    between atoms: _294  and  _297
REMARK  122  A    between atoms: _297  and  _298
REMARK  123  A    between atoms: _301  and  _303
REMARK  124  A    between atoms: _303  and  _304
REMARK  125  A    between atoms: _303  and  _306
REMARK  126  A    between atoms: _306  and  _307
REMARK  127  A    between atoms: _310  and  _312
REMARK  128  A    between atoms: _312  and  _313
REMARK  129  A    between atoms: _312  and  _315
REMARK  130  A    between atoms: _315  and  _316
REMARK  131  A    between atoms: _319  and  _321
REMARK  132  A    between atoms: _321  and  _322
REMARK  133  A    between atoms: _321  and  _324
REMARK  134  A    between atoms: _324  and  _325
REMARK  135  A    between atoms: _328  and  _330
REMARK  136  A    between atoms: _330  and  _331
REMARK  137  A    between atoms: _333  and  _335
REMARK  138  A    between atoms: _335  and  _336
REMARK  139  A    between atoms: _339  and  _341
REMARK  140  A    between atoms: _341  and  _342
REMARK  141  A    between atoms: _341  and  _344
REMARK  142  A    between atoms: _344  and  _345
REMARK  143  A    between atoms: _348  and  _350
REMARK  144  A    between atoms: _350  and  _351
REMARK  145  A    between atoms: _350  and  _353
REMARK  146  A    between atoms: _353  and  _354
REMARK  147  A    between atoms: _357  and  _359
REMARK  148  A    between atoms: _359  and  _360
REMARK  149  A    between atoms: _359  and  _362
REMARK  150  A    between atoms: _362  and  _363
REMARK  151  A    between atoms: _366  and  _368
REMARK  152  A    between atoms: _368  and  _369
REMARK  153  A    between atoms: _368  and  _371
REMARK  154  A    between atoms: _374  and  _376
REMARK  155  A    between atoms: _376  and  _377
REMARK  156  A    between atoms: _376  and  _379
REMARK  157  A    between atoms: _379  and  _380
REMARK  158  A    between atoms: _380  and  _381
REMARK  159  A    between atoms: _381  and  _382
REMARK  160  A    between atoms: _382  and  _383
REMARK  161  A    between atoms: _387  and  _389
REMARK  162  A    between atoms: _389  and  _390
REMARK  163  A    between atoms: _389  and  _392
REMARK  164  A    between atoms: _392  and  _393
REMARK  165  A    between atoms: _393  and  _394
REMARK  166  A    between atoms: _396  and  _398
REMARK  167  A    between atoms: _398  and  _399
REMARK  168  A    between atoms: _398  and  _401
REMARK  169  A    between atoms: _401  and  _402
REMARK  170  A    between atoms: _405  and  _407
REMARK  171  A    between atoms: _407  and  _408
REMARK  172  A    between atoms: _410  and  _412
REMARK  173  A    between atoms: _412  and  _413
REMARK  174  A    between atoms: _415  and  _417
REMARK  175  A    between atoms: _417  and  _418
REMARK  176  A    between atoms: _417  and  _420
REMARK  177  A    between atoms: _420  and  _421
REMARK  178  A    between atoms: _424  and  _426
REMARK  179  A    between atoms: _426  and  _427
REMARK  180  A    between atoms: _429  and  _431
REMARK  181  A    between atoms: _431  and  _432
REMARK  182  A    between atoms: _434  and  _436
REMARK  183  A    between atoms: _436  and  _437
REMARK  184  A    between atoms: _436  and  _439
REMARK  185  A    between atoms: _439  and  _440
REMARK  186  A    between atoms: _446  and  _448
REMARK  187  A    between atoms: _448  and  _449
REMARK  188  A    between atoms: _448  and  _451
REMARK  189  A    between atoms: _451  and  _452
REMARK  190  A    between atoms: _455  and  _457
REMARK  191  A    between atoms: _457  and  _458
REMARK  192  A    between atoms: _457  and  _460
REMARK  193  A    between atoms: _463  and  _465
REMARK  194  A    between atoms: _465  and  _466
REMARK  195  A    between atoms: _465  and  _468
REMARK  196  A    between atoms: _468  and  _469
REMARK  197  A    between atoms: _473  and  _474
REMARK  198  A    between atoms: _479  and  _481
REMARK  199  A    between atoms: _481  and  _482
REMARK  200  A    between atoms: _481  and  _484
REMARK  201  A    between atoms: _484  and  _485
REMARK  202  A    between atoms: _489  and  _490
REMARK  203  A    between atoms: _495  and  _497
REMARK  204  A    between atoms: _497  and  _498
REMARK  205  A    between atoms: _497  and  _500
REMARK  206  A    between atoms: _503  and  _505
REMARK  207  A    between atoms: _505  and  _506
REMARK  208  A    between atoms: _505  and  _508
REMARK  209  A    between atoms: _508  and  _509
REMARK  210  A    between atoms: _514  and  _516
REMARK  211  A    between atoms: _516  and  _517
REMARK  212  A    between atoms: _516  and  _519
REMARK  213  A    between atoms: _519  and  _520
REMARK  214  A    between atoms: _523  and  _525
REMARK  215  A    between atoms: _525  and  _526
REMARK  216  A    between atoms: _525  and  _528
REMARK  217  A    between atoms: _528  and  _529
REMARK  218  A    between atoms: _532  and  _534
REMARK  219  A    between atoms: _534  and  _535
REMARK  220  A    between atoms: _537  and  _539
REMARK  221  A    between atoms: _539  and  _540
REMARK  222  A    between atoms: _539  and  _542
REMARK  223  A    between atoms: _542  and  _543
REMARK  224  A    between atoms: _543  and  _544
REMARK  225  A    between atoms: _544  and  _545
REMARK  226  A    between atoms: _554  and  _556
REMARK  227  A    between atoms: _556  and  _557
REMARK  228  A    between atoms: _556  and  _559
REMARK  229  A    between atoms: _559  and  _560
REMARK                            x       y       z     vdW  Elec       q    Type
REMARK                         _______ _______ _______ _____ _____    ______ ____
ROOT
ATOM      1  O   HOH     1      24.926  24.146  22.648  0.00  0.00    +0.000 OA
ENDROOT
TORSDOF 0
REMARK  Name = ../refined-set-2016/4kb9/4kb9_pocket.pdb
REMARK  229 active torsions:
REMARK  status: ('A' for Active; 'I' for Inactive)
REMARK    1  A    between atoms: _1  and  _3
REMARK    2  A    between atoms: _3  and  _4
REMARK    3  A    between atoms: _3  and  _6
REMARK    4  A    between atoms: _6  and  _7
REMARK    5  A    between atoms: _7  and  _8
REMARK    6  A    between atoms: _8  and  _9
REMARK    7  A    between atoms: _18  and  _20
REMARK    8  A    between atoms: _20  and  _21
REMARK    9  A    between atoms: _20  and  _23
REMARK   10  A    between atoms: _23  and  _24
REMARK   11  A    between atoms: _27  and  _29
REMARK   12  A    between atoms: _29  and  _30
REMARK   13  A    between atoms: _29  and  _32
REMARK   14  A    between atoms: _32  and  _33
REMARK   15  A    between atoms: _36  and  _38
REMARK   16  A    between atoms: _38  and  _39
REMARK   17  A    between atoms: _38  and  _41
REMARK   18  A    between atoms: _41  and  _42
REMARK   19  A    between atoms: _45  and  _47
REMARK   20  A    between atoms: _47  and  _48
REMARK   21  A    between atoms: _47  and  _50
REMARK   22  A    between atoms: _50  and  _51
REMARK   23  A    between atoms: _54  and  _56
REMARK   24  A    between atoms: _56  and  _57
REMARK   25  A    between atoms: _59  and  _61
REMARK   26  A    between atoms: _61  and  _62
REMARK   27  A    between atoms: _65  and  _67
REMARK   28  A    between atoms: _67  and  _68
REMARK   29  A    between atoms: _67  and  _70
REMARK   30  A    between atoms: _70  and  _71
REMARK   31  A    between atoms: _74  and  _76
REMARK   32  A    between atoms: _76  and  _77
REMARK   33  A    between atoms: _76  and  _79
REMARK   34  A    between atoms: _79  and  _80
REMARK   35  A    between atoms: _83  and  _85
REMARK   36  A    between atoms: _85  and  _86
REMARK   37  A    between atoms: _85  and  _88
REMARK   38  A    between atoms: _88  and  _89
REMARK   39  A    between atoms: _92  and  _94
REMARK   40  A    between atoms: _94  and  _95
REMARK   41  A    between atoms: _94  and  _97
REMARK   42  A    between atoms: _100  and  _102
REMARK   43  A    between atoms: _102  and  _103
REMARK   44  A    between atoms: _102  and  _105
REMARK   45  A    between atoms: _105  and  _106
REMARK   46  A    between atoms: _106  and  _107
REMARK   47  A    between atoms: _107  and  _108
REMARK   48  A    between atoms: _108  and  _109
REMARK   49  A    between atoms: _113  and  _115
REMARK   50  A    between atoms: _115  and  _116
REMARK   51  A    between atoms: _115  and  _118
REMARK   52  A    between atoms: _118  and  _119
REMARK   53  A    between atoms: _119  and  _120
REMARK   54  A    between atoms: _122  and  _124
REMARK   55  A    between atoms: _124  and  _125
REMARK   56  A    between atoms: _124  and  _127
REMARK   57  A    between atoms: _127  and  _128
REMARK   58  A    between atoms: _131  and  _133
REMARK   59  A    between atoms: _133  and  _134
REMARK   60  A    between atoms: _136  and  _138
REMARK   61  A    between atoms: _138  and  _139
REMARK   62  A    between atoms: _141  and  _143
REMARK   63  A    between atoms: _143  and  _144
REMARK   64  A    between atoms: _143  and  _146
REMARK   65  A    between atoms: _146  and  _147
REMARK   66  A    between atoms: _150  and  _152
REMARK   67  A    between atoms: _152  and  _153
REMARK   68  A    between atoms: _155  and  _157
REMARK   69  A    between atoms: _157  and  _158
REMARK   70  A    between atoms: _160  and  _162
REMARK   71  A    between atoms: _162  and  _163
REMARK   72  A    between atoms: _162  and  _165
REMARK   73  A    between atoms: _165  and  _166
REMARK   74  A    between atoms: _172  and  _174
REMARK   75  A    between atoms: _174  and  _175
REMARK   76  A    between atoms: _174  and  _177
REMARK   77  A    between atoms: _177  and  _178
REMARK   78  A    between atoms: _181  and  _183
REMARK   79  A    between atoms: _183  and  _184
REMARK   80  A    between atoms: _183  and  _186
REMARK   81  A    between atoms: _189  and  _191
REMARK   82  A    between atoms: _191  and  _192
REMARK   83  A    between atoms: _191  and  _194
REMARK   84  A    between atoms: _194  and  _195
REMARK   85  A    between atoms: _198  and  _200
REMARK   86  A    between atoms: _200  and  _201
REMARK   87  A    between atoms: _200  and  _203
REMARK   88  A    between atoms: _203  and  _204
REMARK   89  A    between atoms: _208  and  _209
REMARK   90  A    between atoms: _214  and  _216
REMARK   91  A    between atoms: _216  and  _217
REMARK   92  A    between atoms: _216  and  _219
REMARK   93  A    between atoms: _222  and  _224
REMARK   94  A    between atoms: _224  and  _225
REMARK   95  A    between atoms: _224  and  _227
REMARK   96  A    between atoms: _227  and  _228
REMARK   97  A    between atoms: _233  and  _235
REMARK   98  A    between atoms: _235  and  _236
REMARK   99  A    between atoms: _235  and  _238
REMARK  100  A    between atoms: _238  and  _239
REMARK  101  A    between atoms: _242  and  _244
REMARK  102  A    between atoms: _244  and  _245
REMARK  103  A    between atoms: _247  and  _249
REMARK  104  A    between atoms: _249  and  _250
REMARK  105  A    between atoms: _249  and  _252
REMARK  106  A    between atoms: _252  and  _253
REMARK  107  A    between atoms: _253  and  _254
REMARK  108  A    between atoms: _254  and  _255
REMARK  109  A    between atoms: _264  and  _266
REMARK  110  A    between atoms: _266  and  _267
REMARK  111  A    between atoms: _266  and  _269
REMARK  112  A    between atoms: _269  and  _270
REMARK  113  A    between atoms: _275  and  _277
REMARK  114  A    between atoms: _277  and  _278
REMARK  115  A    between atoms: _277  and  _280
REMARK  116  A    between atoms: _280  and  _281
REMARK  117  A    between atoms: _281  and  _282
REMARK  118  A    between atoms: _282  and  _283
REMARK  119  A    between atoms: _292  and  _294
REMARK  120  A    between atoms: _294  and  _295
REMARK  121  A    between atoms: _294  and  _297
REMARK  122  A    between atoms: _297  and  _298
REMARK  123  A    between atoms: _301  and  _303
REMARK  124  A    between atoms: _303  and  _304
REMARK  125  A    between atoms: _303  and  _306
REMARK  126  A    between atoms: _306  and  _307
REMARK  127  A    between atoms: _310  and  _312
REMARK  128  A    between atoms: _312  and  _313
REMARK  129  A    between atoms: _312  and  _315
REMARK  130  A    between atoms: _315  and  _316
REMARK  131  A    between atoms: _319  and  _321
REMARK  132  A    between atoms: _321  and  _322
REMARK  133  A    between atoms: _321  and  _324
REMARK  134  A    between atoms: _324  and  _325
REMARK  135  A    between atoms: _328  and  _330
REMARK  136  A    between atoms: _330  and  _331
REMARK  137  A    between atoms: _333  and  _335
REMARK  138  A    between atoms: _335  and  _336
REMARK  139  A    between atoms: _339  and  _341
REMARK  140  A    between atoms: _341  and  _342
REMARK  141  A    between atoms: _341  and  _344
REMARK  142  A    between atoms: _344  and  _345
REMARK  143  A    between atoms: _348  and  _350
REMARK  144  A    between atoms: _350  and  _351
REMARK  145  A    between atoms: _350  and  _353
REMARK  146  A    between atoms: _353  and  _354
REMARK  147  A    between atoms: _357  and  _359
REMARK  148  A    between atoms: _359  and  _360
REMARK  149  A    between atoms: _359  and  _362
REMARK  150  A    between atoms: _362  and  _363
REMARK  151  A    between atoms: _366  and  _368
REMARK  152  A    between atoms: _368  and  _369
REMARK  153  A    between atoms: _368  and  _371
REMARK  154  A    between atoms: _374  and  _376
REMARK  155  A    between atoms: _376  and  _377
REMARK  156  A    between atoms: _376  and  _379
REMARK  157  A    between atoms: _379  and  _380
REMARK  158  A    between atoms: _380  and  _381
REMARK  159  A    between atoms: _381  and  _382
REMARK  160  A    between atoms: _382  and  _383
REMARK  161  A    between atoms: _387  and  _389
REMARK  162  A    between atoms: _389  and  _390
REMARK  163  A    between atoms: _389  and  _392
REMARK  164  A    between atoms: _392  and  _393
REMARK  165  A    between atoms: _393  and  _394
REMARK  166  A    between atoms: _396  and  _398
REMARK  167  A    between atoms: _398  and  _399
REMARK  168  A    between atoms: _398  and  _401
REMARK  169  A    between atoms: _401  and  _402
REMARK  170  A    between atoms: _405  and  _407
REMARK  171  A    between atoms: _407  and  _408
REMARK  172  A    between atoms: _410  and  _412
REMARK  173  A    between atoms: _412  and  _413
REMARK  174  A    between atoms: _415  and  _417
REMARK  175  A    between atoms: _417  and  _418
REMARK  176  A    between atoms: _417  and  _420
REMARK  177  A    between atoms: _420  and  _421
REMARK  178  A    between atoms: _424  and  _426
REMARK  179  A    between atoms: _426  and  _427
REMARK  180  A    between atoms: _429  and  _431
REMARK  181  A    between atoms: _431  and  _432
REMARK  182  A    between atoms: _434  and  _436
REMARK  183  A    between atoms: _436  and  _437
REMARK  184  A    between atoms: _436  and  _439
REMARK  185  A    between atoms: _439  and  _440
REMARK  186  A    between atoms: _446  and  _448
REMARK  187  A    between atoms: _448  and  _449
REMARK  188  A    between atoms: _448  and  _451
REMARK  189  A    between atoms: _451  and  _452
REMARK  190  A    between atoms: _455  and  _457
REMARK  191  A    between atoms: _457  and  _458
REMARK  192  A    between atoms: _457  and  _460
REMARK  193  A    between atoms: _463  and  _465
REMARK  194  A    between atoms: _465  and  _466
REMARK  195  A    between atoms: _465  and  _468
REMARK  196  A    between atoms: _468  and  _469
REMARK  197  A    between atoms: _473  and  _474
REMARK  198  A    between atoms: _479  and  _481
REMARK  199  A    between atoms: _481  and  _482
REMARK  200  A    between atoms: _481  and  _484
REMARK  201  A    between atoms: _484  and  _485
REMARK  202  A    between atoms: _489  and  _490
REMARK  203  A    between atoms: _495  and  _497
REMARK  204  A    between atoms: _497  and  _498
REMARK  205  A    between atoms: _497  and  _500
REMARK  206  A    between atoms: _503  and  _505
REMARK  207  A    between atoms: _505  and  _506
REMARK  208  A    between atoms: _505  and  _508
REMARK  209  A    between atoms: _508  and  _509
REMARK  210  A    between atoms: _514  and  _516
REMARK  211  A    between atoms: _516  and  _517
REMARK  212  A    between atoms: _516  and  _519
REMARK  213  A    between atoms: _519  and  _520
REMARK  214  A    between atoms: _523  and  _525
REMARK  215  A    between atoms: _525  and  _526
REMARK  216  A    between atoms: _525  and  _528
REMARK  217  A    between atoms: _528  and  _529
REMARK  218  A    between atoms: _532  and  _534
REMARK  219  A    between atoms: _534  and  _535
REMARK  220  A    between atoms: _537  and  _539
REMARK  221  A    between atoms: _539  and  _540
REMARK  222  A    between atoms: _539  and  _542
REMARK  223  A    between atoms: _542  and  _543
REMARK  224  A    between atoms: _543  and  _544
REMARK  225  A    between atoms: _544  and  _545
REMARK  226  A    between atoms: _554  and  _556
REMARK  227  A    between atoms: _556  and  _557
REMARK  228  A    between atoms: _556  and  _559
REMARK  229  A    between atoms: _559  and  _560
REMARK                            x       y       z     vdW  Elec       q    Type
REMARK                         _______ _______ _______ _____ _____    ______ ____
ROOT
ATOM      1  O   HOH     1       7.020  15.804  23.042  0.00  0.00    +0.000 OA
ENDROOT
TORSDOF 0
REMARK  Name = ../refined-set-2016/4kb9/4kb9_pocket.pdb
REMARK  229 active torsions:
REMARK  status: ('A' for Active; 'I' for Inactive)
REMARK    1  A    between atoms: _1  and  _3
REMARK    2  A    between atoms: _3  and  _4
REMARK    3  A    between atoms: _3  and  _6
REMARK    4  A    between atoms: _6  and  _7
REMARK    5  A    between atoms: _7  and  _8
REMARK    6  A    between atoms: _8  and  _9
REMARK    7  A    between atoms: _18  and  _20
REMARK    8  A    between atoms: _20  and  _21
REMARK    9  A    between atoms: _20  and  _23
REMARK   10  A    between atoms: _23  and  _24
REMARK   11  A    between atoms: _27  and  _29
REMARK   12  A    between atoms: _29  and  _30
REMARK   13  A    between atoms: _29  and  _32
REMARK   14  A    between atoms: _32  and  _33
REMARK   15  A    between atoms: _36  and  _38
REMARK   16  A    between atoms: _38  and  _39
REMARK   17  A    between atoms: _38  and  _41
REMARK   18  A    between atoms: _41  and  _42
REMARK   19  A    between atoms: _45  and  _47
REMARK   20  A    between atoms: _47  and  _48
REMARK   21  A    between atoms: _47  and  _50
REMARK   22  A    between atoms: _50  and  _51
REMARK   23  A    between atoms: _54  and  _56
REMARK   24  A    between atoms: _56  and  _57
REMARK   25  A    between atoms: _59  and  _61
REMARK   26  A    between atoms: _61  and  _62
REMARK   27  A    between atoms: _65  and  _67
REMARK   28  A    between atoms: _67  and  _68
REMARK   29  A    between atoms: _67  and  _70
REMARK   30  A    between atoms: _70  and  _71
REMARK   31  A    between atoms: _74  and  _76
REMARK   32  A    between atoms: _76  and  _77
REMARK   33  A    between atoms: _76  and  _79
REMARK   34  A    between atoms: _79  and  _80
REMARK   35  A    between atoms: _83  and  _85
REMARK   36  A    between atoms: _85  and  _86
REMARK   37  A    between atoms: _85  and  _88
REMARK   38  A    between atoms: _88  and  _89
REMARK   39  A    between atoms: _92  and  _94
REMARK   40  A    between atoms: _94  and  _95
REMARK   41  A    between atoms: _94  and  _97
REMARK   42  A    between atoms: _100  and  _102
REMARK   43  A    between atoms: _102  and  _103
REMARK   44  A    between atoms: _102  and  _105
REMARK   45  A    between atoms: _105  and  _106
REMARK   46  A    between atoms: _106  and  _107
REMARK   47  A    between atoms: _107  and  _108
REMARK   48  A    between atoms: _108  and  _109
REMARK   49  A    between atoms: _113  and  _115
REMARK   50  A    between atoms: _115  and  _116
REMARK   51  A    between atoms: _115  and  _118
REMARK   52  A    between atoms: _118  and  _119
REMARK   53  A    between atoms: _119  and  _120
REMARK   54  A    between atoms: _122  and  _124
REMARK   55  A    between atoms: _124  and  _125
REMARK   56  A    between atoms: _124  and  _127
REMARK   57  A    between atoms: _127  and  _128
REMARK   58  A    between atoms: _131  and  _133
REMARK   59  A    between atoms: _133  and  _134
REMARK   60  A    between atoms: _136  and  _138
REMARK   61  A    between atoms: _138  and  _139
REMARK   62  A    between atoms: _141  and  _143
REMARK   63  A    between atoms: _143  and  _144
REMARK   64  A    between atoms: _143  and  _146
REMARK   65  A    between atoms: _146  and  _147
REMARK   66  A    between atoms: _150  and  _152
REMARK   67  A    between atoms: _152  and  _153
REMARK   68  A    between atoms: _155  and  _157
REMARK   69  A    between atoms: _157  and  _158
REMARK   70  A    between atoms: _160  and  _162
REMARK   71  A    between atoms: _162  and  _163
REMARK   72  A    between atoms: _162  and  _165
REMARK   73  A    between atoms: _165  and  _166
REMARK   74  A    between atoms: _172  and  _174
REMARK   75  A    between atoms: _174  and  _175
REMARK   76  A    between atoms: _174  and  _177
REMARK   77  A    between atoms: _177  and  _178
REMARK   78  A    between atoms: _181  and  _183
REMARK   79  A    between atoms: _183  and  _184
REMARK   80  A    between atoms: _183  and  _186
REMARK   81  A    between atoms: _189  and  _191
REMARK   82  A    between atoms: _191  and  _192
REMARK   83  A    between atoms: _191  and  _194
REMARK   84  A    between atoms: _194  and  _195
REMARK   85  A    between atoms: _198  and  _200
REMARK   86  A    between atoms: _200  and  _201
REMARK   87  A    between atoms: _200  and  _203
REMARK   88  A    between atoms: _203  and  _204
REMARK   89  A    between atoms: _208  and  _209
REMARK   90  A    between atoms: _214  and  _216
REMARK   91  A    between atoms: _216  and  _217
REMARK   92  A    between atoms: _216  and  _219
REMARK   93  A    between atoms: _222  and  _224
REMARK   94  A    between atoms: _224  and  _225
REMARK   95  A    between atoms: _224  and  _227
REMARK   96  A    between atoms: _227  and  _228
REMARK   97  A    between atoms: _233  and  _235
REMARK   98  A    between atoms: _235  and  _236
REMARK   99  A    between atoms: _235  and  _238
REMARK  100  A    between atoms: _238  and  _239
REMARK  101  A    between atoms: _242  and  _244
REMARK  102  A    between atoms: _244  and  _245
REMARK  103  A    between atoms: _247  and  _249
REMARK  104  A    between atoms: _249  and  _250
REMARK  105  A    between atoms: _249  and  _252
REMARK  106  A    between atoms: _252  and  _253
REMARK  107  A    between atoms: _253  and  _254
REMARK  108  A    between atoms: _254  and  _255
REMARK  109  A    between atoms: _264  and  _266
REMARK  110  A    between atoms: _266  and  _267
REMARK  111  A    between atoms: _266  and  _269
REMARK  112  A    between atoms: _269  and  _270
REMARK  113  A    between atoms: _275  and  _277
REMARK  114  A    between atoms: _277  and  _278
REMARK  115  A    between atoms: _277  and  _280
REMARK  116  A    between atoms: _280  and  _281
REMARK  117  A    between atoms: _281  and  _282
REMARK  118  A    between atoms: _282  and  _283
REMARK  119  A    between atoms: _292  and  _294
REMARK  120  A    between atoms: _294  and  _295
REMARK  121  A    between atoms: _294  and  _297
REMARK  122  A    between atoms: _297  and  _298
REMARK  123  A    between atoms: _301  and  _303
REMARK  124  A    between atoms: _303  and  _304
REMARK  125  A    between atoms: _303  and  _306
REMARK  126  A    between atoms: _306  and  _307
REMARK  127  A    between atoms: _310  and  _312
REMARK  128  A    between atoms: _312  and  _313
REMARK  129  A    between atoms: _312  and  _315
REMARK  130  A    between atoms: _315  and  _316
REMARK  131  A    between atoms: _319  and  _321
REMARK  132  A    between atoms: _321  and  _322
REMARK  133  A    between atoms: _321  and  _324
REMARK  134  A    between atoms: _324  and  _325
REMARK  135  A    between atoms: _328  and  _330
REMARK  136  A    between atoms: _330  and  _331
REMARK  137  A    between atoms: _333  and  _335
REMARK  138  A    between atoms: _335  and  _336
REMARK  139  A    between atoms: _339  and  _341
REMARK  140  A    between atoms: _341  and  _342
REMARK  141  A    between atoms: _341  and  _344
REMARK  142  A    between atoms: _344  and  _345
REMARK  143  A    between atoms: _348  and  _350
REMARK  144  A    between atoms: _350  and  _351
REMARK  145  A    between atoms: _350  and  _353
REMARK  146  A    between atoms: _353  and  _354
REMARK  147  A    between atoms: _357  and  _359
REMARK  148  A    between atoms: _359  and  _360
REMARK  149  A    between atoms: _359  and  _362
REMARK  150  A    between atoms: _362  and  _363
REMARK  151  A    between atoms: _366  and  _368
REMARK  152  A    between atoms: _368  and  _369
REMARK  153  A    between atoms: _368  and  _371
REMARK  154  A    between atoms: _374  and  _376
REMARK  155  A    between atoms: _376  and  _377
REMARK  156  A    between atoms: _376  and  _379
REMARK  157  A    between atoms: _379  and  _380
REMARK  158  A    between atoms: _380  and  _381
REMARK  159  A    between atoms: _381  and  _382
REMARK  160  A    between atoms: _382  and  _383
REMARK  161  A    between atoms: _387  and  _389
REMARK  162  A    between atoms: _389  and  _390
REMARK  163  A    between atoms: _389  and  _392
REMARK  164  A    between atoms: _392  and  _393
REMARK  165  A    between atoms: _393  and  _394
REMARK  166  A    between atoms: _396  and  _398
REMARK  167  A    between atoms: _398  and  _399
REMARK  168  A    between atoms: _398  and  _401
REMARK  169  A    between atoms: _401  and  _402
REMARK  170  A    between atoms: _405  and  _407
REMARK  171  A    between atoms: _407  and  _408
REMARK  172  A    between atoms: _410  and  _412
REMARK  173  A    between atoms: _412  and  _413
REMARK  174  A    between atoms: _415  and  _417
REMARK  175  A    between atoms: _417  and  _418
REMARK  176  A    between atoms: _417  and  _420
REMARK  177  A    between atoms: _420  and  _421
REMARK  178  A    between atoms: _424  and  _426
REMARK  179  A    between atoms: _426  and  _427
REMARK  180  A    between atoms: _429  and  _431
REMARK  181  A    between atoms: _431  and  _432
REMARK  182  A    between atoms: _434  and  _436
REMARK  183  A    between atoms: _436  and  _437
REMARK  184  A    between atoms: _436  and  _439
REMARK  185  A    between atoms: _439  and  _440
REMARK  186  A    between atoms: _446  and  _448
REMARK  187  A    between atoms: _448  and  _449
REMARK  188  A    between atoms: _448  and  _451
REMARK  189  A    between atoms: _451  and  _452
REMARK  190  A    between atoms: _455  and  _457
REMARK  191  A    between atoms: _457  and  _458
REMARK  192  A    between atoms: _457  and  _460
REMARK  193  A    between atoms: _463  and  _465
REMARK  194  A    between atoms: _465  and  _466
REMARK  195  A    between atoms: _465  and  _468
REMARK  196  A    between atoms: _468  and  _469
REMARK  197  A    between atoms: _473  and  _474
REMARK  198  A    between atoms: _479  and  _481
REMARK  199  A    between atoms: _481  and  _482
REMARK  200  A    between atoms: _481  and  _484
REMARK  201  A    between atoms: _484  and  _485
REMARK  202  A    between atoms: _489  and  _490
REMARK  203  A    between atoms: _495  and  _497
REMARK  204  A    between atoms: _497  and  _498
REMARK  205  A    between atoms: _497  and  _500
REMARK  206  A    between atoms: _503  and  _505
REMARK  207  A    between atoms: _505  and  _506
REMARK  208  A    between atoms: _505  and  _508
REMARK  209  A    between atoms: _508  and  _509
REMARK  210  A    between atoms: _514  and  _516
REMARK  211  A    between atoms: _516  and  _517
REMARK  212  A    between atoms: _516  and  _519
REMARK  213  A    between atoms: _519  and  _520
REMARK  214  A    between atoms: _523  and  _525
REMARK  215  A    between atoms: _525  and  _526
REMARK  216  A    between atoms: _525  and  _528
REMARK  217  A    between atoms: _528  and  _529
REMARK  218  A    between atoms: _532  and  _534
REMARK  219  A    between atoms: _534  and  _535
REMARK  220  A    between atoms: _537  and  _539
REMARK  221  A    between atoms: _539  and  _540
REMARK  222  A    between atoms: _539  and  _542
REMARK  223  A    between atoms: _542  and  _543
REMARK  224  A    between atoms: _543  and  _544
REMARK  225  A    between atoms: _544  and  _545
REMARK  226  A    between atoms: _554  and  _556
REMARK  227  A    between atoms: _556  and  _557
REMARK  228  A    between atoms: _556  and  _559
REMARK  229  A    between atoms: _559  and  _560
REMARK                            x       y       z     vdW  Elec       q    Type
REMARK                         _______ _______ _______ _____ _____    ______ ____
ROOT
ATOM      1  O   HOH     1      22.065  27.494  18.224  0.00  0.00    +0.000 OA
ENDROOT
TORSDOF 0
REMARK  Name = ../refined-set-2016/4kb9/4kb9_pocket.pdb
REMARK  229 active torsions:
REMARK  status: ('A' for Active; 'I' for Inactive)
REMARK    1  A    between atoms: _1  and  _3
REMARK    2  A    between atoms: _3  and  _4
REMARK    3  A    between atoms: _3  and  _6
REMARK    4  A    between atoms: _6  and  _7
REMARK    5  A    between atoms: _7  and  _8
REMARK    6  A    between atoms: _8  and  _9
REMARK    7  A    between atoms: _18  and  _20
REMARK    8  A    between atoms: _20  and  _21
REMARK    9  A    between atoms: _20  and  _23
REMARK   10  A    between atoms: _23  and  _24
REMARK   11  A    between atoms: _27  and  _29
REMARK   12  A    between atoms: _29  and  _30
REMARK   13  A    between atoms: _29  and  _32
REMARK   14  A    between atoms: _32  and  _33
REMARK   15  A    between atoms: _36  and  _38
REMARK   16  A    between atoms: _38  and  _39
REMARK   17  A    between atoms: _38  and  _41
REMARK   18  A    between atoms: _41  and  _42
REMARK   19  A    between atoms: _45  and  _47
REMARK   20  A    between atoms: _47  and  _48
REMARK   21  A    between atoms: _47  and  _50
REMARK   22  A    between atoms: _50  and  _51
REMARK   23  A    between atoms: _54  and  _56
REMARK   24  A    between atoms: _56  and  _57
REMARK   25  A    between atoms: _59  and  _61
REMARK   26  A    between atoms: _61  and  _62
REMARK   27  A    between atoms: _65  and  _67
REMARK   28  A    between atoms: _67  and  _68
REMARK   29  A    between atoms: _67  and  _70
REMARK   30  A    between atoms: _70  and  _71
REMARK   31  A    between atoms: _74  and  _76
REMARK   32  A    between atoms: _76  and  _77
REMARK   33  A    between atoms: _76  and  _79
REMARK   34  A    between atoms: _79  and  _80
REMARK   35  A    between atoms: _83  and  _85
REMARK   36  A    between atoms: _85  and  _86
REMARK   37  A    between atoms: _85  and  _88
REMARK   38  A    between atoms: _88  and  _89
REMARK   39  A    between atoms: _92  and  _94
REMARK   40  A    between atoms: _94  and  _95
REMARK   41  A    between atoms: _94  and  _97
REMARK   42  A    between atoms: _100  and  _102
REMARK   43  A    between atoms: _102  and  _103
REMARK   44  A    between atoms: _102  and  _105
REMARK   45  A    between atoms: _105  and  _106
REMARK   46  A    between atoms: _106  and  _107
REMARK   47  A    between atoms: _107  and  _108
REMARK   48  A    between atoms: _108  and  _109
REMARK   49  A    between atoms: _113  and  _115
REMARK   50  A    between atoms: _115  and  _116
REMARK   51  A    between atoms: _115  and  _118
REMARK   52  A    between atoms: _118  and  _119
REMARK   53  A    between atoms: _119  and  _120
REMARK   54  A    between atoms: _122  and  _124
REMARK   55  A    between atoms: _124  and  _125
REMARK   56  A    between atoms: _124  and  _127
REMARK   57  A    between atoms: _127  and  _128
REMARK   58  A    between atoms: _131  and  _133
REMARK   59  A    between atoms: _133  and  _134
REMARK   60  A    between atoms: _136  and  _138
REMARK   61  A    between atoms: _138  and  _139
REMARK   62  A    between atoms: _141  and  _143
REMARK   63  A    between atoms: _143  and  _144
REMARK   64  A    between atoms: _143  and  _146
REMARK   65  A    between atoms: _146  and  _147
REMARK   66  A    between atoms: _150  and  _152
REMARK   67  A    between atoms: _152  and  _153
REMARK   68  A    between atoms: _155  and  _157
REMARK   69  A    between atoms: _157  and  _158
REMARK   70  A    between atoms: _160  and  _162
REMARK   71  A    between atoms: _162  and  _163
REMARK   72  A    between atoms: _162  and  _165
REMARK   73  A    between atoms: _165  and  _166
REMARK   74  A    between atoms: _172  and  _174
REMARK   75  A    between atoms: _174  and  _175
REMARK   76  A    between atoms: _174  and  _177
REMARK   77  A    between atoms: _177  and  _178
REMARK   78  A    between atoms: _181  and  _183
REMARK   79  A    between atoms: _183  and  _184
REMARK   80  A    between atoms: _183  and  _186
REMARK   81  A    between atoms: _189  and  _191
REMARK   82  A    between atoms: _191  and  _192
REMARK   83  A    between atoms: _191  and  _194
REMARK   84  A    between atoms: _194  and  _195
REMARK   85  A    between atoms: _198  and  _200
REMARK   86  A    between atoms: _200  and  _201
REMARK   87  A    between atoms: _200  and  _203
REMARK   88  A    between atoms: _203  and  _204
REMARK   89  A    between atoms: _208  and  _209
REMARK   90  A    between atoms: _214  and  _216
REMARK   91  A    between atoms: _216  and  _217
REMARK   92  A    between atoms: _216  and  _219
REMARK   93  A    between atoms: _222  and  _224
REMARK   94  A    between atoms: _224  and  _225
REMARK   95  A    between atoms: _224  and  _227
REMARK   96  A    between atoms: _227  and  _228
REMARK   97  A    between atoms: _233  and  _235
REMARK   98  A    between atoms: _235  and  _236
REMARK   99  A    between atoms: _235  and  _238
REMARK  100  A    between atoms: _238  and  _239
REMARK  101  A    between atoms: _242  and  _244
REMARK  102  A    between atoms: _244  and  _245
REMARK  103  A    between atoms: _247  and  _249
REMARK  104  A    between atoms: _249  and  _250
REMARK  105  A    between atoms: _249  and  _252
REMARK  106  A    between atoms: _252  and  _253
REMARK  107  A    between atoms: _253  and  _254
REMARK  108  A    between atoms: _254  and  _255
REMARK  109  A    between atoms: _264  and  _266
REMARK  110  A    between atoms: _266  and  _267
REMARK  111  A    between atoms: _266  and  _269
REMARK  112  A    between atoms: _269  and  _270
REMARK  113  A    between atoms: _275  and  _277
REMARK  114  A    between atoms: _277  and  _278
REMARK  115  A    between atoms: _277  and  _280
REMARK  116  A    between atoms: _280  and  _281
REMARK  117  A    between atoms: _281  and  _282
REMARK  118  A    between atoms: _282  and  _283
REMARK  119  A    between atoms: _292  and  _294
REMARK  120  A    between atoms: _294  and  _295
REMARK  121  A    between atoms: _294  and  _297
REMARK  122  A    between atoms: _297  and  _298
REMARK  123  A    between atoms: _301  and  _303
REMARK  124  A    between atoms: _303  and  _304
REMARK  125  A    between atoms: _303  and  _306
REMARK  126  A    between atoms: _306  and  _307
REMARK  127  A    between atoms: _310  and  _312
REMARK  128  A    between atoms: _312  and  _313
REMARK  129  A    between atoms: _312  and  _315
REMARK  130  A    between atoms: _315  and  _316
REMARK  131  A    between atoms: _319  and  _321
REMARK  132  A    between atoms: _321  and  _322
REMARK  133  A    between atoms: _321  and  _324
REMARK  134  A    between atoms: _324  and  _325
REMARK  135  A    between atoms: _328  and  _330
REMARK  136  A    between atoms: _330  and  _331
REMARK  137  A    between atoms: _333  and  _335
REMARK  138  A    between atoms: _335  and  _336
REMARK  139  A    between atoms: _339  and  _341
REMARK  140  A    between atoms: _341  and  _342
REMARK  141  A    between atoms: _341  and  _344
REMARK  142  A    between atoms: _344  and  _345
REMARK  143  A    between atoms: _348  and  _350
REMARK  144  A    between atoms: _350  and  _351
REMARK  145  A    between atoms: _350  and  _353
REMARK  146  A    between atoms: _353  and  _354
REMARK  147  A    between atoms: _357  and  _359
REMARK  148  A    between atoms: _359  and  _360
REMARK  149  A    between atoms: _359  and  _362
REMARK  150  A    between atoms: _362  and  _363
REMARK  151  A    between atoms: _366  and  _368
REMARK  152  A    between atoms: _368  and  _369
REMARK  153  A    between atoms: _368  and  _371
REMARK  154  A    between atoms: _374  and  _376
REMARK  155  A    between atoms: _376  and  _377
REMARK  156  A    between atoms: _376  and  _379
REMARK  157  A    between atoms: _379  and  _380
REMARK  158  A    between atoms: _380  and  _381
REMARK  159  A    between atoms: _381  and  _382
REMARK  160  A    between atoms: _382  and  _383
REMARK  161  A    between atoms: _387  and  _389
REMARK  162  A    between atoms: _389  and  _390
REMARK  163  A    between atoms: _389  and  _392
REMARK  164  A    between atoms: _392  and  _393
REMARK  165  A    between atoms: _393  and  _394
REMARK  166  A    between atoms: _396  and  _398
REMARK  167  A    between atoms: _398  and  _399
REMARK  168  A    between atoms: _398  and  _401
REMARK  169  A    between atoms: _401  and  _402
REMARK  170  A    between atoms: _405  and  _407
REMARK  171  A    between atoms: _407  and  _408
REMARK  172  A    between atoms: _410  and  _412
REMARK  173  A    between atoms: _412  and  _413
REMARK  174  A    between atoms: _415  and  _417
REMARK  175  A    between atoms: _417  and  _418
REMARK  176  A    between atoms: _417  and  _420
REMARK  177  A    between atoms: _420  and  _421
REMARK  178  A    between atoms: _424  and  _426
REMARK  179  A    between atoms: _426  and  _427
REMARK  180  A    between atoms: _429  and  _431
REMARK  181  A    between atoms: _431  and  _432
REMARK  182  A    between atoms: _434  and  _436
REMARK  183  A    between atoms: _436  and  _437
REMARK  184  A    between atoms: _436  and  _439
REMARK  185  A    between atoms: _439  and  _440
REMARK  186  A    between atoms: _446  and  _448
REMARK  187  A    between atoms: _448  and  _449
REMARK  188  A    between atoms: _448  and  _451
REMARK  189  A    between atoms: _451  and  _452
REMARK  190  A    between atoms: _455  and  _457
REMARK  191  A    between atoms: _457  and  _458
REMARK  192  A    between atoms: _457  and  _460
REMARK  193  A    between atoms: _463  and  _465
REMARK  194  A    between atoms: _465  and  _466
REMARK  195  A    between atoms: _465  and  _468
REMARK  196  A    between atoms: _468  and  _469
REMARK  197  A    between atoms: _473  and  _474
REMARK  198  A    between atoms: _479  and  _481
REMARK  199  A    between atoms: _481  and  _482
REMARK  200  A    between atoms: _481  and  _484
REMARK  201  A    between atoms: _484  and  _485
REMARK  202  A    between atoms: _489  and  _490
REMARK  203  A    between atoms: _495  and  _497
REMARK  204  A    between atoms: _497  and  _498
REMARK  205  A    between atoms: _497  and  _500
REMARK  206  A    between atoms: _503  and  _505
REMARK  207  A    between atoms: _505  and  _506
REMARK  208  A    between atoms: _505  and  _508
REMARK  209  A    between atoms: _508  and  _509
REMARK  210  A    between atoms: _514  and  _516
REMARK  211  A    between atoms: _516  and  _517
REMARK  212  A    between atoms: _516  and  _519
REMARK  213  A    between atoms: _519  and  _520
REMARK  214  A    between atoms: _523  and  _525
REMARK  215  A    between atoms: _525  and  _526
REMARK  216  A    between atoms: _525  and  _528
REMARK  217  A    between atoms: _528  and  _529
REMARK  218  A    between atoms: _532  and  _534
REMARK  219  A    between atoms: _534  and  _535
REMARK  220  A    between atoms: _537  and  _539
REMARK  221  A    between atoms: _539  and  _540
REMARK  222  A    between atoms: _539  and  _542
REMARK  223  A    between atoms: _542  and  _543
REMARK  224  A    between atoms: _543  and  _544
REMARK  225  A    between atoms: _544  and  _545
REMARK  226  A    between atoms: _554  and  _556
REMARK  227  A    between atoms: _556  and  _557
REMARK  228  A    between atoms: _556  and  _559
REMARK  229  A    between atoms: _559  and  _560
REMARK                            x       y       z     vdW  Elec       q    Type
REMARK                         _______ _______ _______ _____ _____    ______ ____
ROOT
ATOM      1  O   HOH     1      16.006  26.907  12.173  0.00  0.00    +0.000 OA
ENDROOT
TORSDOF 0
REMARK  Name = ../refined-set-2016/4kb9/4kb9_pocket.pdb
REMARK  229 active torsions:
REMARK  status: ('A' for Active; 'I' for Inactive)
REMARK    1  A    between atoms: _1  and  _3
REMARK    2  A    between atoms: _3  and  _4
REMARK    3  A    between atoms: _3  and  _6
REMARK    4  A    between atoms: _6  and  _7
REMARK    5  A    between atoms: _7  and  _8
REMARK    6  A    between atoms: _8  and  _9
REMARK    7  A    between atoms: _18  and  _20
REMARK    8  A    between atoms: _20  and  _21
REMARK    9  A    between atoms: _20  and  _23
REMARK   10  A    between atoms: _23  and  _24
REMARK   11  A    between atoms: _27  and  _29
REMARK   12  A    between atoms: _29  and  _30
REMARK   13  A    between atoms: _29  and  _32
REMARK   14  A    between atoms: _32  and  _33
REMARK   15  A    between atoms: _36  and  _38
REMARK   16  A    between atoms: _38  and  _39
REMARK   17  A    between atoms: _38  and  _41
REMARK   18  A    between atoms: _41  and  _42
REMARK   19  A    between atoms: _45  and  _47
REMARK   20  A    between atoms: _47  and  _48
REMARK   21  A    between atoms: _47  and  _50
REMARK   22  A    between atoms: _50  and  _51
REMARK   23  A    between atoms: _54  and  _56
REMARK   24  A    between atoms: _56  and  _57
REMARK   25  A    between atoms: _59  and  _61
REMARK   26  A    between atoms: _61  and  _62
REMARK   27  A    between atoms: _65  and  _67
REMARK   28  A    between atoms: _67  and  _68
REMARK   29  A    between atoms: _67  and  _70
REMARK   30  A    between atoms: _70  and  _71
REMARK   31  A    between atoms: _74  and  _76
REMARK   32  A    between atoms: _76  and  _77
REMARK   33  A    between atoms: _76  and  _79
REMARK   34  A    between atoms: _79  and  _80
REMARK   35  A    between atoms: _83  and  _85
REMARK   36  A    between atoms: _85  and  _86
REMARK   37  A    between atoms: _85  and  _88
REMARK   38  A    between atoms: _88  and  _89
REMARK   39  A    between atoms: _92  and  _94
REMARK   40  A    between atoms: _94  and  _95
REMARK   41  A    between atoms: _94  and  _97
REMARK   42  A    between atoms: _100  and  _102
REMARK   43  A    between atoms: _102  and  _103
REMARK   44  A    between atoms: _102  and  _105
REMARK   45  A    between atoms: _105  and  _106
REMARK   46  A    between atoms: _106  and  _107
REMARK   47  A    between atoms: _107  and  _108
REMARK   48  A    between atoms: _108  and  _109
REMARK   49  A    between atoms: _113  and  _115
REMARK   50  A    between atoms: _115  and  _116
REMARK   51  A    between atoms: _115  and  _118
REMARK   52  A    between atoms: _118  and  _119
REMARK   53  A    between atoms: _119  and  _120
REMARK   54  A    between atoms: _122  and  _124
REMARK   55  A    between atoms: _124  and  _125
REMARK   56  A    between atoms: _124  and  _127
REMARK   57  A    between atoms: _127  and  _128
REMARK   58  A    between atoms: _131  and  _133
REMARK   59  A    between atoms: _133  and  _134
REMARK   60  A    between atoms: _136  and  _138
REMARK   61  A    between atoms: _138  and  _139
REMARK   62  A    between atoms: _141  and  _143
REMARK   63  A    between atoms: _143  and  _144
REMARK   64  A    between atoms: _143  and  _146
REMARK   65  A    between atoms: _146  and  _147
REMARK   66  A    between atoms: _150  and  _152
REMARK   67  A    between atoms: _152  and  _153
REMARK   68  A    between atoms: _155  and  _157
REMARK   69  A    between atoms: _157  and  _158
REMARK   70  A    between atoms: _160  and  _162
REMARK   71  A    between atoms: _162  and  _163
REMARK   72  A    between atoms: _162  and  _165
REMARK   73  A    between atoms: _165  and  _166
REMARK   74  A    between atoms: _172  and  _174
REMARK   75  A    between atoms: _174  and  _175
REMARK   76  A    between atoms: _174  and  _177
REMARK   77  A    between atoms: _177  and  _178
REMARK   78  A    between atoms: _181  and  _183
REMARK   79  A    between atoms: _183  and  _184
REMARK   80  A    between atoms: _183  and  _186
REMARK   81  A    between atoms: _189  and  _191
REMARK   82  A    between atoms: _191  and  _192
REMARK   83  A    between atoms: _191  and  _194
REMARK   84  A    between atoms: _194  and  _195
REMARK   85  A    between atoms: _198  and  _200
REMARK   86  A    between atoms: _200  and  _201
REMARK   87  A    between atoms: _200  and  _203
REMARK   88  A    between atoms: _203  and  _204
REMARK   89  A    between atoms: _208  and  _209
REMARK   90  A    between atoms: _214  and  _216
REMARK   91  A    between atoms: _216  and  _217
REMARK   92  A    between atoms: _216  and  _219
REMARK   93  A    between atoms: _222  and  _224
REMARK   94  A    between atoms: _224  and  _225
REMARK   95  A    between atoms: _224  and  _227
REMARK   96  A    between atoms: _227  and  _228
REMARK   97  A    between atoms: _233  and  _235
REMARK   98  A    between atoms: _235  and  _236
REMARK   99  A    between atoms: _235  and  _238
REMARK  100  A    between atoms: _238  and  _239
REMARK  101  A    between atoms: _242  and  _244
REMARK  102  A    between atoms: _244  and  _245
REMARK  103  A    between atoms: _247  and  _249
REMARK  104  A    between atoms: _249  and  _250
REMARK  105  A    between atoms: _249  and  _252
REMARK  106  A    between atoms: _252  and  _253
REMARK  107  A    between atoms: _253  and  _254
REMARK  108  A    between atoms: _254  and  _255
REMARK  109  A    between atoms: _264  and  _266
REMARK  110  A    between atoms: _266  and  _267
REMARK  111  A    between atoms: _266  and  _269
REMARK  112  A    between atoms: _269  and  _270
REMARK  113  A    between atoms: _275  and  _277
REMARK  114  A    between atoms: _277  and  _278
REMARK  115  A    between atoms: _277  and  _280
REMARK  116  A    between atoms: _280  and  _281
REMARK  117  A    between atoms: _281  and  _282
REMARK  118  A    between atoms: _282  and  _283
REMARK  119  A    between atoms: _292  and  _294
REMARK  120  A    between atoms: _294  and  _295
REMARK  121  A    between atoms: _294  and  _297
REMARK  122  A    between atoms: _297  and  _298
REMARK  123  A    between atoms: _301  and  _303
REMARK  124  A    between atoms: _303  and  _304
REMARK  125  A    between atoms: _303  and  _306
REMARK  126  A    between atoms: _306  and  _307
REMARK  127  A    between atoms: _310  and  _312
REMARK  128  A    between atoms: _312  and  _313
REMARK  129  A    between atoms: _312  and  _315
REMARK  130  A    between atoms: _315  and  _316
REMARK  131  A    between atoms: _319  and  _321
REMARK  132  A    between atoms: _321  and  _322
REMARK  133  A    between atoms: _321  and  _324
REMARK  134  A    between atoms: _324  and  _325
REMARK  135  A    between atoms: _328  and  _330
REMARK  136  A    between atoms: _330  and  _331
REMARK  137  A    between atoms: _333  and  _335
REMARK  138  A    between atoms: _335  and  _336
REMARK  139  A    between atoms: _339  and  _341
REMARK  140  A    between atoms: _341  and  _342
REMARK  141  A    between atoms: _341  and  _344
REMARK  142  A    between atoms: _344  and  _345
REMARK  143  A    between atoms: _348  and  _350
REMARK  144  A    between atoms: _350  and  _351
REMARK  145  A    between atoms: _350  and  _353
REMARK  146  A    between atoms: _353  and  _354
REMARK  147  A    between atoms: _357  and  _359
REMARK  148  A    between atoms: _359  and  _360
REMARK  149  A    between atoms: _359  and  _362
REMARK  150  A    between atoms: _362  and  _363
REMARK  151  A    between atoms: _366  and  _368
REMARK  152  A    between atoms: _368  and  _369
REMARK  153  A    between atoms: _368  and  _371
REMARK  154  A    between atoms: _374  and  _376
REMARK  155  A    between atoms: _376  and  _377
REMARK  156  A    between atoms: _376  and  _379
REMARK  157  A    between atoms: _379  and  _380
REMARK  158  A    between atoms: _380  and  _381
REMARK  159  A    between atoms: _381  and  _382
REMARK  160  A    between atoms: _382  and  _383
REMARK  161  A    between atoms: _387  and  _389
REMARK  162  A    between atoms: _389  and  _390
REMARK  163  A    between atoms: _389  and  _392
REMARK  164  A    between atoms: _392  and  _393
REMARK  165  A    between atoms: _393  and  _394
REMARK  166  A    between atoms: _396  and  _398
REMARK  167  A    between atoms: _398  and  _399
REMARK  168  A    between atoms: _398  and  _401
REMARK  169  A    between atoms: _401  and  _402
REMARK  170  A    between atoms: _405  and  _407
REMARK  171  A    between atoms: _407  and  _408
REMARK  172  A    between atoms: _410  and  _412
REMARK  173  A    between atoms: _412  and  _413
REMARK  174  A    between atoms: _415  and  _417
REMARK  175  A    between atoms: _417  and  _418
REMARK  176  A    between atoms: _417  and  _420
REMARK  177  A    between atoms: _420  and  _421
REMARK  178  A    between atoms: _424  and  _426
REMARK  179  A    between atoms: _426  and  _427
REMARK  180  A    between atoms: _429  and  _431
REMARK  181  A    between atoms: _431  and  _432
REMARK  182  A    between atoms: _434  and  _436
REMARK  183  A    between atoms: _436  and  _437
REMARK  184  A    between atoms: _436  and  _439
REMARK  185  A    between atoms: _439  and  _440
REMARK  186  A    between atoms: _446  and  _448
REMARK  187  A    between atoms: _448  and  _449
REMARK  188  A    between atoms: _448  and  _451
REMARK  189  A    between atoms: _451  and  _452
REMARK  190  A    between atoms: _455  and  _457
REMARK  191  A    between atoms: _457  and  _458
REMARK  192  A    between atoms: _457  and  _460
REMARK  193  A    between atoms: _463  and  _465
REMARK  194  A    between atoms: _465  and  _466
REMARK  195  A    between atoms: _465  and  _468
REMARK  196  A    between atoms: _468  and  _469
REMARK  197  A    between atoms: _473  and  _474
REMARK  198  A    between atoms: _479  and  _481
REMARK  199  A    between atoms: _481  and  _482
REMARK  200  A    between atoms: _481  and  _484
REMARK  201  A    between atoms: _484  and  _485
REMARK  202  A    between atoms: _489  and  _490
REMARK  203  A    between atoms: _495  and  _497
REMARK  204  A    between atoms: _497  and  _498
REMARK  205  A    between atoms: _497  and  _500
REMARK  206  A    between atoms: _503  and  _505
REMARK  207  A    between atoms: _505  and  _506
REMARK  208  A    between atoms: _505  and  _508
REMARK  209  A    between atoms: _508  and  _509
REMARK  210  A    between atoms: _514  and  _516
REMARK  211  A    between atoms: _516  and  _517
REMARK  212  A    between atoms: _516  and  _519
REMARK  213  A    between atoms: _519  and  _520
REMARK  214  A    between atoms: _523  and  _525
REMARK  215  A    between atoms: _525  and  _526
REMARK  216  A    between atoms: _525  and  _528
REMARK  217  A    between atoms: _528  and  _529
REMARK  218  A    between atoms: _532  and  _534
REMARK  219  A    between atoms: _534  and  _535
REMARK  220  A    between atoms: _537  and  _539
REMARK  221  A    between atoms: _539  and  _540
REMARK  222  A    between atoms: _539  and  _542
REMARK  223  A    between atoms: _542  and  _543
REMARK  224  A    between atoms: _543  and  _544
REMARK  225  A    between atoms: _544  and  _545
REMARK  226  A    between atoms: _554  and  _556
REMARK  227  A    between atoms: _556  and  _557
REMARK  228  A    between atoms: _556  and  _559
REMARK  229  A    between atoms: _559  and  _560
REMARK                            x       y       z     vdW  Elec       q    Type
REMARK                         _______ _______ _______ _____ _____    ______ ____
ROOT
ATOM      1  O   HOH     1      18.589  28.365  13.538  0.00  0.00    +0.000 OA
ENDROOT
TORSDOF 0
REMARK  Name = ../refined-set-2016/4kb9/4kb9_pocket.pdb
REMARK  229 active torsions:
REMARK  status: ('A' for Active; 'I' for Inactive)
REMARK    1  A    between atoms: _1  and  _3
REMARK    2  A    between atoms: _3  and  _4
REMARK    3  A    between atoms: _3  and  _6
REMARK    4  A    between atoms: _6  and  _7
REMARK    5  A    between atoms: _7  and  _8
REMARK    6  A    between atoms: _8  and  _9
REMARK    7  A    between atoms: _18  and  _20
REMARK    8  A    between atoms: _20  and  _21
REMARK    9  A    between atoms: _20  and  _23
REMARK   10  A    between atoms: _23  and  _24
REMARK   11  A    between atoms: _27  and  _29
REMARK   12  A    between atoms: _29  and  _30
REMARK   13  A    between atoms: _29  and  _32
REMARK   14  A    between atoms: _32  and  _33
REMARK   15  A    between atoms: _36  and  _38
REMARK   16  A    between atoms: _38  and  _39
REMARK   17  A    between atoms: _38  and  _41
REMARK   18  A    between atoms: _41  and  _42
REMARK   19  A    between atoms: _45  and  _47
REMARK   20  A    between atoms: _47  and  _48
REMARK   21  A    between atoms: _47  and  _50
REMARK   22  A    between atoms: _50  and  _51
REMARK   23  A    between atoms: _54  and  _56
REMARK   24  A    between atoms: _56  and  _57
REMARK   25  A    between atoms: _59  and  _61
REMARK   26  A    between atoms: _61  and  _62
REMARK   27  A    between atoms: _65  and  _67
REMARK   28  A    between atoms: _67  and  _68
REMARK   29  A    between atoms: _67  and  _70
REMARK   30  A    between atoms: _70  and  _71
REMARK   31  A    between atoms: _74  and  _76
REMARK   32  A    between atoms: _76  and  _77
REMARK   33  A    between atoms: _76  and  _79
REMARK   34  A    between atoms: _79  and  _80
REMARK   35  A    between atoms: _83  and  _85
REMARK   36  A    between atoms: _85  and  _86
REMARK   37  A    between atoms: _85  and  _88
REMARK   38  A    between atoms: _88  and  _89
REMARK   39  A    between atoms: _92  and  _94
REMARK   40  A    between atoms: _94  and  _95
REMARK   41  A    between atoms: _94  and  _97
REMARK   42  A    between atoms: _100  and  _102
REMARK   43  A    between atoms: _102  and  _103
REMARK   44  A    between atoms: _102  and  _105
REMARK   45  A    between atoms: _105  and  _106
REMARK   46  A    between atoms: _106  and  _107
REMARK   47  A    between atoms: _107  and  _108
REMARK   48  A    between atoms: _108  and  _109
REMARK   49  A    between atoms: _113  and  _115
REMARK   50  A    between atoms: _115  and  _116
REMARK   51  A    between atoms: _115  and  _118
REMARK   52  A    between atoms: _118  and  _119
REMARK   53  A    between atoms: _119  and  _120
REMARK   54  A    between atoms: _122  and  _124
REMARK   55  A    between atoms: _124  and  _125
REMARK   56  A    between atoms: _124  and  _127
REMARK   57  A    between atoms: _127  and  _128
REMARK   58  A    between atoms: _131  and  _133
REMARK   59  A    between atoms: _133  and  _134
REMARK   60  A    between atoms: _136  and  _138
REMARK   61  A    between atoms: _138  and  _139
REMARK   62  A    between atoms: _141  and  _143
REMARK   63  A    between atoms: _143  and  _144
REMARK   64  A    between atoms: _143  and  _146
REMARK   65  A    between atoms: _146  and  _147
REMARK   66  A    between atoms: _150  and  _152
REMARK   67  A    between atoms: _152  and  _153
REMARK   68  A    between atoms: _155  and  _157
REMARK   69  A    between atoms: _157  and  _158
REMARK   70  A    between atoms: _160  and  _162
REMARK   71  A    between atoms: _162  and  _163
REMARK   72  A    between atoms: _162  and  _165
REMARK   73  A    between atoms: _165  and  _166
REMARK   74  A    between atoms: _172  and  _174
REMARK   75  A    between atoms: _174  and  _175
REMARK   76  A    between atoms: _174  and  _177
REMARK   77  A    between atoms: _177  and  _178
REMARK   78  A    between atoms: _181  and  _183
REMARK   79  A    between atoms: _183  and  _184
REMARK   80  A    between atoms: _183  and  _186
REMARK   81  A    between atoms: _189  and  _191
REMARK   82  A    between atoms: _191  and  _192
REMARK   83  A    between atoms: _191  and  _194
REMARK   84  A    between atoms: _194  and  _195
REMARK   85  A    between atoms: _198  and  _200
REMARK   86  A    between atoms: _200  and  _201
REMARK   87  A    between atoms: _200  and  _203
REMARK   88  A    between atoms: _203  and  _204
REMARK   89  A    between atoms: _208  and  _209
REMARK   90  A    between atoms: _214  and  _216
REMARK   91  A    between atoms: _216  and  _217
REMARK   92  A    between atoms: _216  and  _219
REMARK   93  A    between atoms: _222  and  _224
REMARK   94  A    between atoms: _224  and  _225
REMARK   95  A    between atoms: _224  and  _227
REMARK   96  A    between atoms: _227  and  _228
REMARK   97  A    between atoms: _233  and  _235
REMARK   98  A    between atoms: _235  and  _236
REMARK   99  A    between atoms: _235  and  _238
REMARK  100  A    between atoms: _238  and  _239
REMARK  101  A    between atoms: _242  and  _244
REMARK  102  A    between atoms: _244  and  _245
REMARK  103  A    between atoms: _247  and  _249
REMARK  104  A    between atoms: _249  and  _250
REMARK  105  A    between atoms: _249  and  _252
REMARK  106  A    between atoms: _252  and  _253
REMARK  107  A    between atoms: _253  and  _254
REMARK  108  A    between atoms: _254  and  _255
REMARK  109  A    between atoms: _264  and  _266
REMARK  110  A    between atoms: _266  and  _267
REMARK  111  A    between atoms: _266  and  _269
REMARK  112  A    between atoms: _269  and  _270
REMARK  113  A    between atoms: _275  and  _277
REMARK  114  A    between atoms: _277  and  _278
REMARK  115  A    between atoms: _277  and  _280
REMARK  116  A    between atoms: _280  and  _281
REMARK  117  A    between atoms: _281  and  _282
REMARK  118  A    between atoms: _282  and  _283
REMARK  119  A    between atoms: _292  and  _294
REMARK  120  A    between atoms: _294  and  _295
REMARK  121  A    between atoms: _294  and  _297
REMARK  122  A    between atoms: _297  and  _298
REMARK  123  A    between atoms: _301  and  _303
REMARK  124  A    between atoms: _303  and  _304
REMARK  125  A    between atoms: _303  and  _306
REMARK  126  A    between atoms: _306  and  _307
REMARK  127  A    between atoms: _310  and  _312
REMARK  128  A    between atoms: _312  and  _313
REMARK  129  A    between atoms: _312  and  _315
REMARK  130  A    between atoms: _315  and  _316
REMARK  131  A    between atoms: _319  and  _321
REMARK  132  A    between atoms: _321  and  _322
REMARK  133  A    between atoms: _321  and  _324
REMARK  134  A    between atoms: _324  and  _325
REMARK  135  A    between atoms: _328  and  _330
REMARK  136  A    between atoms: _330  and  _331
REMARK  137  A    between atoms: _333  and  _335
REMARK  138  A    between atoms: _335  and  _336
REMARK  139  A    between atoms: _339  and  _341
REMARK  140  A    between atoms: _341  and  _342
REMARK  141  A    between atoms: _341  and  _344
REMARK  142  A    between atoms: _344  and  _345
REMARK  143  A    between atoms: _348  and  _350
REMARK  144  A    between atoms: _350  and  _351
REMARK  145  A    between atoms: _350  and  _353
REMARK  146  A    between atoms: _353  and  _354
REMARK  147  A    between atoms: _357  and  _359
REMARK  148  A    between atoms: _359  and  _360
REMARK  149  A    between atoms: _359  and  _362
REMARK  150  A    between atoms: _362  and  _363
REMARK  151  A    between atoms: _366  and  _368
REMARK  152  A    between atoms: _368  and  _369
REMARK  153  A    between atoms: _368  and  _371
REMARK  154  A    between atoms: _374  and  _376
REMARK  155  A    between atoms: _376  and  _377
REMARK  156  A    between atoms: _376  and  _379
REMARK  157  A    between atoms: _379  and  _380
REMARK  158  A    between atoms: _380  and  _381
REMARK  159  A    between atoms: _381  and  _382
REMARK  160  A    between atoms: _382  and  _383
REMARK  161  A    between atoms: _387  and  _389
REMARK  162  A    between atoms: _389  and  _390
REMARK  163  A    between atoms: _389  and  _392
REMARK  164  A    between atoms: _392  and  _393
REMARK  165  A    between atoms: _393  and  _394
REMARK  166  A    between atoms: _396  and  _398
REMARK  167  A    between atoms: _398  and  _399
REMARK  168  A    between atoms: _398  and  _401
REMARK  169  A    between atoms: _401  and  _402
REMARK  170  A    between atoms: _405  and  _407
REMARK  171  A    between atoms: _407  and  _408
REMARK  172  A    between atoms: _410  and  _412
REMARK  173  A    between atoms: _412  and  _413
REMARK  174  A    between atoms: _415  and  _417
REMARK  175  A    between atoms: _417  and  _418
REMARK  176  A    between atoms: _417  and  _420
REMARK  177  A    between atoms: _420  and  _421
REMARK  178  A    between atoms: _424  and  _426
REMARK  179  A    between atoms: _426  and  _427
REMARK  180  A    between atoms: _429  and  _431
REMARK  181  A    between atoms: _431  and  _432
REMARK  182  A    between atoms: _434  and  _436
REMARK  183  A    between atoms: _436  and  _437
REMARK  184  A    between atoms: _436  and  _439
REMARK  185  A    between atoms: _439  and  _440
REMARK  186  A    between atoms: _446  and  _448
REMARK  187  A    between atoms: _448  and  _449
REMARK  188  A    between atoms: _448  and  _451
REMARK  189  A    between atoms: _451  and  _452
REMARK  190  A    between atoms: _455  and  _457
REMARK  191  A    between atoms: _457  and  _458
REMARK  192  A    between atoms: _457  and  _460
REMARK  193  A    between atoms: _463  and  _465
REMARK  194  A    between atoms: _465  and  _466
REMARK  195  A    between atoms: _465  and  _468
REMARK  196  A    between atoms: _468  and  _469
REMARK  197  A    between atoms: _473  and  _474
REMARK  198  A    between atoms: _479  and  _481
REMARK  199  A    between atoms: _481  and  _482
REMARK  200  A    between atoms: _481  and  _484
REMARK  201  A    between atoms: _484  and  _485
REMARK  202  A    between atoms: _489  and  _490
REMARK  203  A    between atoms: _495  and  _497
REMARK  204  A    between atoms: _497  and  _498
REMARK  205  A    between atoms: _497  and  _500
REMARK  206  A    between atoms: _503  and  _505
REMARK  207  A    between atoms: _505  and  _506
REMARK  208  A    between atoms: _505  and  _508
REMARK  209  A    between atoms: _508  and  _509
REMARK  210  A    between atoms: _514  and  _516
REMARK  211  A    between atoms: _516  and  _517
REMARK  212  A    between atoms: _516  and  _519
REMARK  213  A    between atoms: _519  and  _520
REMARK  214  A    between atoms: _523  and  _525
REMARK  215  A    between atoms: _525  and  _526
REMARK  216  A    between atoms: _525  and  _528
REMARK  217  A    between atoms: _528  and  _529
REMARK  218  A    between atoms: _532  and  _534
REMARK  219  A    between atoms: _534  and  _535
REMARK  220  A    between atoms: _537  and  _539
REMARK  221  A    between atoms: _539  and  _540
REMARK  222  A    between atoms: _539  and  _542
REMARK  223  A    between atoms: _542  and  _543
REMARK  224  A    between atoms: _543  and  _544
REMARK  225  A    between atoms: _544  and  _545
REMARK  226  A    between atoms: _554  and  _556
REMARK  227  A    between atoms: _556  and  _557
REMARK  228  A    between atoms: _556  and  _559
REMARK  229  A    between atoms: _559  and  _560
REMARK                            x       y       z     vdW  Elec       q    Type
REMARK                         _______ _______ _______ _____ _____    ______ ____
ROOT
ATOM      1  O   HOH     1       4.437  17.150  22.399  0.00  0.00    +0.000 OA
ENDROOT
TORSDOF 0
REMARK  Name = ../refined-set-2016/4kb9/4kb9_pocket.pdb
REMARK  229 active torsions:
REMARK  status: ('A' for Active; 'I' for Inactive)
REMARK    1  A    between atoms: _1  and  _3
REMARK    2  A    between atoms: _3  and  _4
REMARK    3  A    between atoms: _3  and  _6
REMARK    4  A    between atoms: _6  and  _7
REMARK    5  A    between atoms: _7  and  _8
REMARK    6  A    between atoms: _8  and  _9
REMARK    7  A    between atoms: _18  and  _20
REMARK    8  A    between atoms: _20  and  _21
REMARK    9  A    between atoms: _20  and  _23
REMARK   10  A    between atoms: _23  and  _24
REMARK   11  A    between atoms: _27  and  _29
REMARK   12  A    between atoms: _29  and  _30
REMARK   13  A    between atoms: _29  and  _32
REMARK   14  A    between atoms: _32  and  _33
REMARK   15  A    between atoms: _36  and  _38
REMARK   16  A    between atoms: _38  and  _39
REMARK   17  A    between atoms: _38  and  _41
REMARK   18  A    between atoms: _41  and  _42
REMARK   19  A    between atoms: _45  and  _47
REMARK   20  A    between atoms: _47  and  _48
REMARK   21  A    between atoms: _47  and  _50
REMARK   22  A    between atoms: _50  and  _51
REMARK   23  A    between atoms: _54  and  _56
REMARK   24  A    between atoms: _56  and  _57
REMARK   25  A    between atoms: _59  and  _61
REMARK   26  A    between atoms: _61  and  _62
REMARK   27  A    between atoms: _65  and  _67
REMARK   28  A    between atoms: _67  and  _68
REMARK   29  A    between atoms: _67  and  _70
REMARK   30  A    between atoms: _70  and  _71
REMARK   31  A    between atoms: _74  and  _76
REMARK   32  A    between atoms: _76  and  _77
REMARK   33  A    between atoms: _76  and  _79
REMARK   34  A    between atoms: _79  and  _80
REMARK   35  A    between atoms: _83  and  _85
REMARK   36  A    between atoms: _85  and  _86
REMARK   37  A    between atoms: _85  and  _88
REMARK   38  A    between atoms: _88  and  _89
REMARK   39  A    between atoms: _92  and  _94
REMARK   40  A    between atoms: _94  and  _95
REMARK   41  A    between atoms: _94  and  _97
REMARK   42  A    between atoms: _100  and  _102
REMARK   43  A    between atoms: _102  and  _103
REMARK   44  A    between atoms: _102  and  _105
REMARK   45  A    between atoms: _105  and  _106
REMARK   46  A    between atoms: _106  and  _107
REMARK   47  A    between atoms: _107  and  _108
REMARK   48  A    between atoms: _108  and  _109
REMARK   49  A    between atoms: _113  and  _115
REMARK   50  A    between atoms: _115  and  _116
REMARK   51  A    between atoms: _115  and  _118
REMARK   52  A    between atoms: _118  and  _119
REMARK   53  A    between atoms: _119  and  _120
REMARK   54  A    between atoms: _122  and  _124
REMARK   55  A    between atoms: _124  and  _125
REMARK   56  A    between atoms: _124  and  _127
REMARK   57  A    between atoms: _127  and  _128
REMARK   58  A    between atoms: _131  and  _133
REMARK   59  A    between atoms: _133  and  _134
REMARK   60  A    between atoms: _136  and  _138
REMARK   61  A    between atoms: _138  and  _139
REMARK   62  A    between atoms: _141  and  _143
REMARK   63  A    between atoms: _143  and  _144
REMARK   64  A    between atoms: _143  and  _146
REMARK   65  A    between atoms: _146  and  _147
REMARK   66  A    between atoms: _150  and  _152
REMARK   67  A    between atoms: _152  and  _153
REMARK   68  A    between atoms: _155  and  _157
REMARK   69  A    between atoms: _157  and  _158
REMARK   70  A    between atoms: _160  and  _162
REMARK   71  A    between atoms: _162  and  _163
REMARK   72  A    between atoms: _162  and  _165
REMARK   73  A    between atoms: _165  and  _166
REMARK   74  A    between atoms: _172  and  _174
REMARK   75  A    between atoms: _174  and  _175
REMARK   76  A    between atoms: _174  and  _177
REMARK   77  A    between atoms: _177  and  _178
REMARK   78  A    between atoms: _181  and  _183
REMARK   79  A    between atoms: _183  and  _184
REMARK   80  A    between atoms: _183  and  _186
REMARK   81  A    between atoms: _189  and  _191
REMARK   82  A    between atoms: _191  and  _192
REMARK   83  A    between atoms: _191  and  _194
REMARK   84  A    between atoms: _194  and  _195
REMARK   85  A    between atoms: _198  and  _200
REMARK   86  A    between atoms: _200  and  _201
REMARK   87  A    between atoms: _200  and  _203
REMARK   88  A    between atoms: _203  and  _204
REMARK   89  A    between atoms: _208  and  _209
REMARK   90  A    between atoms: _214  and  _216
REMARK   91  A    between atoms: _216  and  _217
REMARK   92  A    between atoms: _216  and  _219
REMARK   93  A    between atoms: _222  and  _224
REMARK   94  A    between atoms: _224  and  _225
REMARK   95  A    between atoms: _224  and  _227
REMARK   96  A    between atoms: _227  and  _228
REMARK   97  A    between atoms: _233  and  _235
REMARK   98  A    between atoms: _235  and  _236
REMARK   99  A    between atoms: _235  and  _238
REMARK  100  A    between atoms: _238  and  _239
REMARK  101  A    between atoms: _242  and  _244
REMARK  102  A    between atoms: _244  and  _245
REMARK  103  A    between atoms: _247  and  _249
REMARK  104  A    between atoms: _249  and  _250
REMARK  105  A    between atoms: _249  and  _252
REMARK  106  A    between atoms: _252  and  _253
REMARK  107  A    between atoms: _253  and  _254
REMARK  108  A    between atoms: _254  and  _255
REMARK  109  A    between atoms: _264  and  _266
REMARK  110  A    between atoms: _266  and  _267
REMARK  111  A    between atoms: _266  and  _269
REMARK  112  A    between atoms: _269  and  _270
REMARK  113  A    between atoms: _275  and  _277
REMARK  114  A    between atoms: _277  and  _278
REMARK  115  A    between atoms: _277  and  _280
REMARK  116  A    between atoms: _280  and  _281
REMARK  117  A    between atoms: _281  and  _282
REMARK  118  A    between atoms: _282  and  _283
REMARK  119  A    between atoms: _292  and  _294
REMARK  120  A    between atoms: _294  and  _295
REMARK  121  A    between atoms: _294  and  _297
REMARK  122  A    between atoms: _297  and  _298
REMARK  123  A    between atoms: _301  and  _303
REMARK  124  A    between atoms: _303  and  _304
REMARK  125  A    between atoms: _303  and  _306
REMARK  126  A    between atoms: _306  and  _307
REMARK  127  A    between atoms: _310  and  _312
REMARK  128  A    between atoms: _312  and  _313
REMARK  129  A    between atoms: _312  and  _315
REMARK  130  A    between atoms: _315  and  _316
REMARK  131  A    between atoms: _319  and  _321
REMARK  132  A    between atoms: _321  and  _322
REMARK  133  A    between atoms: _321  and  _324
REMARK  134  A    between atoms: _324  and  _325
REMARK  135  A    between atoms: _328  and  _330
REMARK  136  A    between atoms: _330  and  _331
REMARK  137  A    between atoms: _333  and  _335
REMARK  138  A    between atoms: _335  and  _336
REMARK  139  A    between atoms: _339  and  _341
REMARK  140  A    between atoms: _341  and  _342
REMARK  141  A    between atoms: _341  and  _344
REMARK  142  A    between atoms: _344  and  _345
REMARK  143  A    between atoms: _348  and  _350
REMARK  144  A    between atoms: _350  and  _351
REMARK  145  A    between atoms: _350  and  _353
REMARK  146  A    between atoms: _353  and  _354
REMARK  147  A    between atoms: _357  and  _359
REMARK  148  A    between atoms: _359  and  _360
REMARK  149  A    between atoms: _359  and  _362
REMARK  150  A    between atoms: _362  and  _363
REMARK  151  A    between atoms: _366  and  _368
REMARK  152  A    between atoms: _368  and  _369
REMARK  153  A    between atoms: _368  and  _371
REMARK  154  A    between atoms: _374  and  _376
REMARK  155  A    between atoms: _376  and  _377
REMARK  156  A    between atoms: _376  and  _379
REMARK  157  A    between atoms: _379  and  _380
REMARK  158  A    between atoms: _380  and  _381
REMARK  159  A    between atoms: _381  and  _382
REMARK  160  A    between atoms: _382  and  _383
REMARK  161  A    between atoms: _387  and  _389
REMARK  162  A    between atoms: _389  and  _390
REMARK  163  A    between atoms: _389  and  _392
REMARK  164  A    between atoms: _392  and  _393
REMARK  165  A    between atoms: _393  and  _394
REMARK  166  A    between atoms: _396  and  _398
REMARK  167  A    between atoms: _398  and  _399
REMARK  168  A    between atoms: _398  and  _401
REMARK  169  A    between atoms: _401  and  _402
REMARK  170  A    between atoms: _405  and  _407
REMARK  171  A    between atoms: _407  and  _408
REMARK  172  A    between atoms: _410  and  _412
REMARK  173  A    between atoms: _412  and  _413
REMARK  174  A    between atoms: _415  and  _417
REMARK  175  A    between atoms: _417  and  _418
REMARK  176  A    between atoms: _417  and  _420
REMARK  177  A    between atoms: _420  and  _421
REMARK  178  A    between atoms: _424  and  _426
REMARK  179  A    between atoms: _426  and  _427
REMARK  180  A    between atoms: _429  and  _431
REMARK  181  A    between atoms: _431  and  _432
REMARK  182  A    between atoms: _434  and  _436
REMARK  183  A    between atoms: _436  and  _437
REMARK  184  A    between atoms: _436  and  _439
REMARK  185  A    between atoms: _439  and  _440
REMARK  186  A    between atoms: _446  and  _448
REMARK  187  A    between atoms: _448  and  _449
REMARK  188  A    between atoms: _448  and  _451
REMARK  189  A    between atoms: _451  and  _452
REMARK  190  A    between atoms: _455  and  _457
REMARK  191  A    between atoms: _457  and  _458
REMARK  192  A    between atoms: _457  and  _460
REMARK  193  A    between atoms: _463  and  _465
REMARK  194  A    between atoms: _465  and  _466
REMARK  195  A    between atoms: _465  and  _468
REMARK  196  A    between atoms: _468  and  _469
REMARK  197  A    between atoms: _473  and  _474
REMARK  198  A    between atoms: _479  and  _481
REMARK  199  A    between atoms: _481  and  _482
REMARK  200  A    between atoms: _481  and  _484
REMARK  201  A    between atoms: _484  and  _485
REMARK  202  A    between atoms: _489  and  _490
REMARK  203  A    between atoms: _495  and  _497
REMARK  204  A    between atoms: _497  and  _498
REMARK  205  A    between atoms: _497  and  _500
REMARK  206  A    between atoms: _503  and  _505
REMARK  207  A    between atoms: _505  and  _506
REMARK  208  A    between atoms: _505  and  _508
REMARK  209  A    between atoms: _508  and  _509
REMARK  210  A    between atoms: _514  and  _516
REMARK  211  A    between atoms: _516  and  _517
REMARK  212  A    between atoms: _516  and  _519
REMARK  213  A    between atoms: _519  and  _520
REMARK  214  A    between atoms: _523  and  _525
REMARK  215  A    between atoms: _525  and  _526
REMARK  216  A    between atoms: _525  and  _528
REMARK  217  A    between atoms: _528  and  _529
REMARK  218  A    between atoms: _532  and  _534
REMARK  219  A    between atoms: _534  and  _535
REMARK  220  A    between atoms: _537  and  _539
REMARK  221  A    between atoms: _539  and  _540
REMARK  222  A    between atoms: _539  and  _542
REMARK  223  A    between atoms: _542  and  _543
REMARK  224  A    between atoms: _543  and  _544
REMARK  225  A    between atoms: _544  and  _545
REMARK  226  A    between atoms: _554  and  _556
REMARK  227  A    between atoms: _556  and  _557
REMARK  228  A    between atoms: _556  and  _559
REMARK  229  A    between atoms: _559  and  _560
REMARK                            x       y       z     vdW  Elec       q    Type
REMARK                         _______ _______ _______ _____ _____    ______ ____
ROOT
ATOM      1  O   HOH     1       9.738  25.221   8.962  0.00  0.00    +0.000 OA
ENDROOT
TORSDOF 0
REMARK  Name = ../refined-set-2016/4kb9/4kb9_pocket.pdb
REMARK  229 active torsions:
REMARK  status: ('A' for Active; 'I' for Inactive)
REMARK    1  A    between atoms: _1  and  _3
REMARK    2  A    between atoms: _3  and  _4
REMARK    3  A    between atoms: _3  and  _6
REMARK    4  A    between atoms: _6  and  _7
REMARK    5  A    between atoms: _7  and  _8
REMARK    6  A    between atoms: _8  and  _9
REMARK    7  A    between atoms: _18  and  _20
REMARK    8  A    between atoms: _20  and  _21
REMARK    9  A    between atoms: _20  and  _23
REMARK   10  A    between atoms: _23  and  _24
REMARK   11  A    between atoms: _27  and  _29
REMARK   12  A    between atoms: _29  and  _30
REMARK   13  A    between atoms: _29  and  _32
REMARK   14  A    between atoms: _32  and  _33
REMARK   15  A    between atoms: _36  and  _38
REMARK   16  A    between atoms: _38  and  _39
REMARK   17  A    between atoms: _38  and  _41
REMARK   18  A    between atoms: _41  and  _42
REMARK   19  A    between atoms: _45  and  _47
REMARK   20  A    between atoms: _47  and  _48
REMARK   21  A    between atoms: _47  and  _50
REMARK   22  A    between atoms: _50  and  _51
REMARK   23  A    between atoms: _54  and  _56
REMARK   24  A    between atoms: _56  and  _57
REMARK   25  A    between atoms: _59  and  _61
REMARK   26  A    between atoms: _61  and  _62
REMARK   27  A    between atoms: _65  and  _67
REMARK   28  A    between atoms: _67  and  _68
REMARK   29  A    between atoms: _67  and  _70
REMARK   30  A    between atoms: _70  and  _71
REMARK   31  A    between atoms: _74  and  _76
REMARK   32  A    between atoms: _76  and  _77
REMARK   33  A    between atoms: _76  and  _79
REMARK   34  A    between atoms: _79  and  _80
REMARK   35  A    between atoms: _83  and  _85
REMARK   36  A    between atoms: _85  and  _86
REMARK   37  A    between atoms: _85  and  _88
REMARK   38  A    between atoms: _88  and  _89
REMARK   39  A    between atoms: _92  and  _94
REMARK   40  A    between atoms: _94  and  _95
REMARK   41  A    between atoms: _94  and  _97
REMARK   42  A    between atoms: _100  and  _102
REMARK   43  A    between atoms: _102  and  _103
REMARK   44  A    between atoms: _102  and  _105
REMARK   45  A    between atoms: _105  and  _106
REMARK   46  A    between atoms: _106  and  _107
REMARK   47  A    between atoms: _107  and  _108
REMARK   48  A    between atoms: _108  and  _109
REMARK   49  A    between atoms: _113  and  _115
REMARK   50  A    between atoms: _115  and  _116
REMARK   51  A    between atoms: _115  and  _118
REMARK   52  A    between atoms: _118  and  _119
REMARK   53  A    between atoms: _119  and  _120
REMARK   54  A    between atoms: _122  and  _124
REMARK   55  A    between atoms: _124  and  _125
REMARK   56  A    between atoms: _124  and  _127
REMARK   57  A    between atoms: _127  and  _128
REMARK   58  A    between atoms: _131  and  _133
REMARK   59  A    between atoms: _133  and  _134
REMARK   60  A    between atoms: _136  and  _138
REMARK   61  A    between atoms: _138  and  _139
REMARK   62  A    between atoms: _141  and  _143
REMARK   63  A    between atoms: _143  and  _144
REMARK   64  A    between atoms: _143  and  _146
REMARK   65  A    between atoms: _146  and  _147
REMARK   66  A    between atoms: _150  and  _152
REMARK   67  A    between atoms: _152  and  _153
REMARK   68  A    between atoms: _155  and  _157
REMARK   69  A    between atoms: _157  and  _158
REMARK   70  A    between atoms: _160  and  _162
REMARK   71  A    between atoms: _162  and  _163
REMARK   72  A    between atoms: _162  and  _165
REMARK   73  A    between atoms: _165  and  _166
REMARK   74  A    between atoms: _172  and  _174
REMARK   75  A    between atoms: _174  and  _175
REMARK   76  A    between atoms: _174  and  _177
REMARK   77  A    between atoms: _177  and  _178
REMARK   78  A    between atoms: _181  and  _183
REMARK   79  A    between atoms: _183  and  _184
REMARK   80  A    between atoms: _183  and  _186
REMARK   81  A    between atoms: _189  and  _191
REMARK   82  A    between atoms: _191  and  _192
REMARK   83  A    between atoms: _191  and  _194
REMARK   84  A    between atoms: _194  and  _195
REMARK   85  A    between atoms: _198  and  _200
REMARK   86  A    between atoms: _200  and  _201
REMARK   87  A    between atoms: _200  and  _203
REMARK   88  A    between atoms: _203  and  _204
REMARK   89  A    between atoms: _208  and  _209
REMARK   90  A    between atoms: _214  and  _216
REMARK   91  A    between atoms: _216  and  _217
REMARK   92  A    between atoms: _216  and  _219
REMARK   93  A    between atoms: _222  and  _224
REMARK   94  A    between atoms: _224  and  _225
REMARK   95  A    between atoms: _224  and  _227
REMARK   96  A    between atoms: _227  and  _228
REMARK   97  A    between atoms: _233  and  _235
REMARK   98  A    between atoms: _235  and  _236
REMARK   99  A    between atoms: _235  and  _238
REMARK  100  A    between atoms: _238  and  _239
REMARK  101  A    between atoms: _242  and  _244
REMARK  102  A    between atoms: _244  and  _245
REMARK  103  A    between atoms: _247  and  _249
REMARK  104  A    between atoms: _249  and  _250
REMARK  105  A    between atoms: _249  and  _252
REMARK  106  A    between atoms: _252  and  _253
REMARK  107  A    between atoms: _253  and  _254
REMARK  108  A    between atoms: _254  and  _255
REMARK  109  A    between atoms: _264  and  _266
REMARK  110  A    between atoms: _266  and  _267
REMARK  111  A    between atoms: _266  and  _269
REMARK  112  A    between atoms: _269  and  _270
REMARK  113  A    between atoms: _275  and  _277
REMARK  114  A    between atoms: _277  and  _278
REMARK  115  A    between atoms: _277  and  _280
REMARK  116  A    between atoms: _280  and  _281
REMARK  117  A    between atoms: _281  and  _282
REMARK  118  A    between atoms: _282  and  _283
REMARK  119  A    between atoms: _292  and  _294
REMARK  120  A    between atoms: _294  and  _295
REMARK  121  A    between atoms: _294  and  _297
REMARK  122  A    between atoms: _297  and  _298
REMARK  123  A    between atoms: _301  and  _303
REMARK  124  A    between atoms: _303  and  _304
REMARK  125  A    between atoms: _303  and  _306
REMARK  126  A    between atoms: _306  and  _307
REMARK  127  A    between atoms: _310  and  _312
REMARK  128  A    between atoms: _312  and  _313
REMARK  129  A    between atoms: _312  and  _315
REMARK  130  A    between atoms: _315  and  _316
REMARK  131  A    between atoms: _319  and  _321
REMARK  132  A    between atoms: _321  and  _322
REMARK  133  A    between atoms: _321  and  _324
REMARK  134  A    between atoms: _324  and  _325
REMARK  135  A    between atoms: _328  and  _330
REMARK  136  A    between atoms: _330  and  _331
REMARK  137  A    between atoms: _333  and  _335
REMARK  138  A    between atoms: _335  and  _336
REMARK  139  A    between atoms: _339  and  _341
REMARK  140  A    between atoms: _341  and  _342
REMARK  141  A    between atoms: _341  and  _344
REMARK  142  A    between atoms: _344  and  _345
REMARK  143  A    between atoms: _348  and  _350
REMARK  144  A    between atoms: _350  and  _351
REMARK  145  A    between atoms: _350  and  _353
REMARK  146  A    between atoms: _353  and  _354
REMARK  147  A    between atoms: _357  and  _359
REMARK  148  A    between atoms: _359  and  _360
REMARK  149  A    between atoms: _359  and  _362
REMARK  150  A    between atoms: _362  and  _363
REMARK  151  A    between atoms: _366  and  _368
REMARK  152  A    between atoms: _368  and  _369
REMARK  153  A    between atoms: _368  and  _371
REMARK  154  A    between atoms: _374  and  _376
REMARK  155  A    between atoms: _376  and  _377
REMARK  156  A    between atoms: _376  and  _379
REMARK  157  A    between atoms: _379  and  _380
REMARK  158  A    between atoms: _380  and  _381
REMARK  159  A    between atoms: _381  and  _382
REMARK  160  A    between atoms: _382  and  _383
REMARK  161  A    between atoms: _387  and  _389
REMARK  162  A    between atoms: _389  and  _390
REMARK  163  A    between atoms: _389  and  _392
REMARK  164  A    between atoms: _392  and  _393
REMARK  165  A    between atoms: _393  and  _394
REMARK  166  A    between atoms: _396  and  _398
REMARK  167  A    between atoms: _398  and  _399
REMARK  168  A    between atoms: _398  and  _401
REMARK  169  A    between atoms: _401  and  _402
REMARK  170  A    between atoms: _405  and  _407
REMARK  171  A    between atoms: _407  and  _408
REMARK  172  A    between atoms: _410  and  _412
REMARK  173  A    between atoms: _412  and  _413
REMARK  174  A    between atoms: _415  and  _417
REMARK  175  A    between atoms: _417  and  _418
REMARK  176  A    between atoms: _417  and  _420
REMARK  177  A    between atoms: _420  and  _421
REMARK  178  A    between atoms: _424  and  _426
REMARK  179  A    between atoms: _426  and  _427
REMARK  180  A    between atoms: _429  and  _431
REMARK  181  A    between atoms: _431  and  _432
REMARK  182  A    between atoms: _434  and  _436
REMARK  183  A    between atoms: _436  and  _437
REMARK  184  A    between atoms: _436  and  _439
REMARK  185  A    between atoms: _439  and  _440
REMARK  186  A    between atoms: _446  and  _448
REMARK  187  A    between atoms: _448  and  _449
REMARK  188  A    between atoms: _448  and  _451
REMARK  189  A    between atoms: _451  and  _452
REMARK  190  A    between atoms: _455  and  _457
REMARK  191  A    between atoms: _457  and  _458
REMARK  192  A    between atoms: _457  and  _460
REMARK  193  A    between atoms: _463  and  _465
REMARK  194  A    between atoms: _465  and  _466
REMARK  195  A    between atoms: _465  and  _468
REMARK  196  A    between atoms: _468  and  _469
REMARK  197  A    between atoms: _473  and  _474
REMARK  198  A    between atoms: _479  and  _481
REMARK  199  A    between atoms: _481  and  _482
REMARK  200  A    between atoms: _481  and  _484
REMARK  201  A    between atoms: _484  and  _485
REMARK  202  A    between atoms: _489  and  _490
REMARK  203  A    between atoms: _495  and  _497
REMARK  204  A    between atoms: _497  and  _498
REMARK  205  A    between atoms: _497  and  _500
REMARK  206  A    between atoms: _503  and  _505
REMARK  207  A    between atoms: _505  and  _506
REMARK  208  A    between atoms: _505  and  _508
REMARK  209  A    between atoms: _508  and  _509
REMARK  210  A    between atoms: _514  and  _516
REMARK  211  A    between atoms: _516  and  _517
REMARK  212  A    between atoms: _516  and  _519
REMARK  213  A    between atoms: _519  and  _520
REMARK  214  A    between atoms: _523  and  _525
REMARK  215  A    between atoms: _525  and  _526
REMARK  216  A    between atoms: _525  and  _528
REMARK  217  A    between atoms: _528  and  _529
REMARK  218  A    between atoms: _532  and  _534
REMARK  219  A    between atoms: _534  and  _535
REMARK  220  A    between atoms: _537  and  _539
REMARK  221  A    between atoms: _539  and  _540
REMARK  222  A    between atoms: _539  and  _542
REMARK  223  A    between atoms: _542  and  _543
REMARK  224  A    between atoms: _543  and  _544
REMARK  225  A    between atoms: _544  and  _545
REMARK  226  A    between atoms: _554  and  _556
REMARK  227  A    between atoms: _556  and  _557
REMARK  228  A    between atoms: _556  and  _559
REMARK  229  A    between atoms: _559  and  _560
REMARK                            x       y       z     vdW  Elec       q    Type
REMARK                         _______ _______ _______ _____ _____    ______ ____
ROOT
ATOM      1  O   UNL     1       5.834  15.155  25.998  0.00  0.00    +0.000 OA
ATOM      2  O   UNL     1       7.193  15.526  25.573  0.00  0.00    +0.000 OA
ENDROOT
TORSDOF 0
REMARK  Name = ../refined-set-2016/4kb9/4kb9_pocket.pdb
REMARK  229 active torsions:
REMARK  status: ('A' for Active; 'I' for Inactive)
REMARK    1  A    between atoms: _1  and  _3
REMARK    2  A    between atoms: _3  and  _4
REMARK    3  A    between atoms: _3  and  _6
REMARK    4  A    between atoms: _6  and  _7
REMARK    5  A    between atoms: _7  and  _8
REMARK    6  A    between atoms: _8  and  _9
REMARK    7  A    between atoms: _18  and  _20
REMARK    8  A    between atoms: _20  and  _21
REMARK    9  A    between atoms: _20  and  _23
REMARK   10  A    between atoms: _23  and  _24
REMARK   11  A    between atoms: _27  and  _29
REMARK   12  A    between atoms: _29  and  _30
REMARK   13  A    between atoms: _29  and  _32
REMARK   14  A    between atoms: _32  and  _33
REMARK   15  A    between atoms: _36  and  _38
REMARK   16  A    between atoms: _38  and  _39
REMARK   17  A    between atoms: _38  and  _41
REMARK   18  A    between atoms: _41  and  _42
REMARK   19  A    between atoms: _45  and  _47
REMARK   20  A    between atoms: _47  and  _48
REMARK   21  A    between atoms: _47  and  _50
REMARK   22  A    between atoms: _50  and  _51
REMARK   23  A    between atoms: _54  and  _56
REMARK   24  A    between atoms: _56  and  _57
REMARK   25  A    between atoms: _59  and  _61
REMARK   26  A    between atoms: _61  and  _62
REMARK   27  A    between atoms: _65  and  _67
REMARK   28  A    between atoms: _67  and  _68
REMARK   29  A    between atoms: _67  and  _70
REMARK   30  A    between atoms: _70  and  _71
REMARK   31  A    between atoms: _74  and  _76
REMARK   32  A    between atoms: _76  and  _77
REMARK   33  A    between atoms: _76  and  _79
REMARK   34  A    between atoms: _79  and  _80
REMARK   35  A    between atoms: _83  and  _85
REMARK   36  A    between atoms: _85  and  _86
REMARK   37  A    between atoms: _85  and  _88
REMARK   38  A    between atoms: _88  and  _89
REMARK   39  A    between atoms: _92  and  _94
REMARK   40  A    between atoms: _94  and  _95
REMARK   41  A    between atoms: _94  and  _97
REMARK   42  A    between atoms: _100  and  _102
REMARK   43  A    between atoms: _102  and  _103
REMARK   44  A    between atoms: _102  and  _105
REMARK   45  A    between atoms: _105  and  _106
REMARK   46  A    between atoms: _106  and  _107
REMARK   47  A    between atoms: _107  and  _108
REMARK   48  A    between atoms: _108  and  _109
REMARK   49  A    between atoms: _113  and  _115
REMARK   50  A    between atoms: _115  and  _116
REMARK   51  A    between atoms: _115  and  _118
REMARK   52  A    between atoms: _118  and  _119
REMARK   53  A    between atoms: _119  and  _120
REMARK   54  A    between atoms: _122  and  _124
REMARK   55  A    between atoms: _124  and  _125
REMARK   56  A    between atoms: _124  and  _127
REMARK   57  A    between atoms: _127  and  _128
REMARK   58  A    between atoms: _131  and  _133
REMARK   59  A    between atoms: _133  and  _134
REMARK   60  A    between atoms: _136  and  _138
REMARK   61  A    between atoms: _138  and  _139
REMARK   62  A    between atoms: _141  and  _143
REMARK   63  A    between atoms: _143  and  _144
REMARK   64  A    between atoms: _143  and  _146
REMARK   65  A    between atoms: _146  and  _147
REMARK   66  A    between atoms: _150  and  _152
REMARK   67  A    between atoms: _152  and  _153
REMARK   68  A    between atoms: _155  and  _157
REMARK   69  A    between atoms: _157  and  _158
REMARK   70  A    between atoms: _160  and  _162
REMARK   71  A    between atoms: _162  and  _163
REMARK   72  A    between atoms: _162  and  _165
REMARK   73  A    between atoms: _165  and  _166
REMARK   74  A    between atoms: _172  and  _174
REMARK   75  A    between atoms: _174  and  _175
REMARK   76  A    between atoms: _174  and  _177
REMARK   77  A    between atoms: _177  and  _178
REMARK   78  A    between atoms: _181  and  _183
REMARK   79  A    between atoms: _183  and  _184
REMARK   80  A    between atoms: _183  and  _186
REMARK   81  A    between atoms: _189  and  _191
REMARK   82  A    between atoms: _191  and  _192
REMARK   83  A    between atoms: _191  and  _194
REMARK   84  A    between atoms: _194  and  _195
REMARK   85  A    between atoms: _198  and  _200
REMARK   86  A    between atoms: _200  and  _201
REMARK   87  A    between atoms: _200  and  _203
REMARK   88  A    between atoms: _203  and  _204
REMARK   89  A    between atoms: _208  and  _209
REMARK   90  A    between atoms: _214  and  _216
REMARK   91  A    between atoms: _216  and  _217
REMARK   92  A    between atoms: _216  and  _219
REMARK   93  A    between atoms: _222  and  _224
REMARK   94  A    between atoms: _224  and  _225
REMARK   95  A    between atoms: _224  and  _227
REMARK   96  A    between atoms: _227  and  _228
REMARK   97  A    between atoms: _233  and  _235
REMARK   98  A    between atoms: _235  and  _236
REMARK   99  A    between atoms: _235  and  _238
REMARK  100  A    between atoms: _238  and  _239
REMARK  101  A    between atoms: _242  and  _244
REMARK  102  A    between atoms: _244  and  _245
REMARK  103  A    between atoms: _247  and  _249
REMARK  104  A    between atoms: _249  and  _250
REMARK  105  A    between atoms: _249  and  _252
REMARK  106  A    between atoms: _252  and  _253
REMARK  107  A    between atoms: _253  and  _254
REMARK  108  A    between atoms: _254  and  _255
REMARK  109  A    between atoms: _264  and  _266
REMARK  110  A    between atoms: _266  and  _267
REMARK  111  A    between atoms: _266  and  _269
REMARK  112  A    between atoms: _269  and  _270
REMARK  113  A    between atoms: _275  and  _277
REMARK  114  A    between atoms: _277  and  _278
REMARK  115  A    between atoms: _277  and  _280
REMARK  116  A    between atoms: _280  and  _281
REMARK  117  A    between atoms: _281  and  _282
REMARK  118  A    between atoms: _282  and  _283
REMARK  119  A    between atoms: _292  and  _294
REMARK  120  A    between atoms: _294  and  _295
REMARK  121  A    between atoms: _294  and  _297
REMARK  122  A    between atoms: _297  and  _298
REMARK  123  A    between atoms: _301  and  _303
REMARK  124  A    between atoms: _303  and  _304
REMARK  125  A    between atoms: _303  and  _306
REMARK  126  A    between atoms: _306  and  _307
REMARK  127  A    between atoms: _310  and  _312
REMARK  128  A    between atoms: _312  and  _313
REMARK  129  A    between atoms: _312  and  _315
REMARK  130  A    between atoms: _315  and  _316
REMARK  131  A    between atoms: _319  and  _321
REMARK  132  A    between atoms: _321  and  _322
REMARK  133  A    between atoms: _321  and  _324
REMARK  134  A    between atoms: _324  and  _325
REMARK  135  A    between atoms: _328  and  _330
REMARK  136  A    between atoms: _330  and  _331
REMARK  137  A    between atoms: _333  and  _335
REMARK  138  A    between atoms: _335  and  _336
REMARK  139  A    between atoms: _339  and  _341
REMARK  140  A    between atoms: _341  and  _342
REMARK  141  A    between atoms: _341  and  _344
REMARK  142  A    between atoms: _344  and  _345
REMARK  143  A    between atoms: _348  and  _350
REMARK  144  A    between atoms: _350  and  _351
REMARK  145  A    between atoms: _350  and  _353
REMARK  146  A    between atoms: _353  and  _354
REMARK  147  A    between atoms: _357  and  _359
REMARK  148  A    between atoms: _359  and  _360
REMARK  149  A    between atoms: _359  and  _362
REMARK  150  A    between atoms: _362  and  _363
REMARK  151  A    between atoms: _366  and  _368
REMARK  152  A    between atoms: _368  and  _369
REMARK  153  A    between atoms: _368  and  _371
REMARK  154  A    between atoms: _374  and  _376
REMARK  155  A    between atoms: _376  and  _377
REMARK  156  A    between atoms: _376  and  _379
REMARK  157  A    between atoms: _379  and  _380
REMARK  158  A    between atoms: _380  and  _381
REMARK  159  A    between atoms: _381  and  _382
REMARK  160  A    between atoms: _382  and  _383
REMARK  161  A    between atoms: _387  and  _389
REMARK  162  A    between atoms: _389  and  _390
REMARK  163  A    between atoms: _389  and  _392
REMARK  164  A    between atoms: _392  and  _393
REMARK  165  A    between atoms: _393  and  _394
REMARK  166  A    between atoms: _396  and  _398
REMARK  167  A    between atoms: _398  and  _399
REMARK  168  A    between atoms: _398  and  _401
REMARK  169  A    between atoms: _401  and  _402
REMARK  170  A    between atoms: _405  and  _407
REMARK  171  A    between atoms: _407  and  _408
REMARK  172  A    between atoms: _410  and  _412
REMARK  173  A    between atoms: _412  and  _413
REMARK  174  A    between atoms: _415  and  _417
REMARK  175  A    between atoms: _417  and  _418
REMARK  176  A    between atoms: _417  and  _420
REMARK  177  A    between atoms: _420  and  _421
REMARK  178  A    between atoms: _424  and  _426
REMARK  179  A    between atoms: _426  and  _427
REMARK  180  A    between atoms: _429  and  _431
REMARK  181  A    between atoms: _431  and  _432
REMARK  182  A    between atoms: _434  and  _436
REMARK  183  A    between atoms: _436  and  _437
REMARK  184  A    between atoms: _436  and  _439
REMARK  185  A    between atoms: _439  and  _440
REMARK  186  A    between atoms: _446  and  _448
REMARK  187  A    between atoms: _448  and  _449
REMARK  188  A    between atoms: _448  and  _451
REMARK  189  A    between atoms: _451  and  _452
REMARK  190  A    between atoms: _455  and  _457
REMARK  191  A    between atoms: _457  and  _458
REMARK  192  A    between atoms: _457  and  _460
REMARK  193  A    between atoms: _463  and  _465
REMARK  194  A    between atoms: _465  and  _466
REMARK  195  A    between atoms: _465  and  _468
REMARK  196  A    between atoms: _468  and  _469
REMARK  197  A    between atoms: _473  and  _474
REMARK  198  A    between atoms: _479  and  _481
REMARK  199  A    between atoms: _481  and  _482
REMARK  200  A    between atoms: _481  and  _484
REMARK  201  A    between atoms: _484  and  _485
REMARK  202  A    between atoms: _489  and  _490
REMARK  203  A    between atoms: _495  and  _497
REMARK  204  A    between atoms: _497  and  _498
REMARK  205  A    between atoms: _497  and  _500
REMARK  206  A    between atoms: _503  and  _505
REMARK  207  A    between atoms: _505  and  _506
REMARK  208  A    between atoms: _505  and  _508
REMARK  209  A    between atoms: _508  and  _509
REMARK  210  A    between atoms: _514  and  _516
REMARK  211  A    between atoms: _516  and  _517
REMARK  212  A    between atoms: _516  and  _519
REMARK  213  A    between atoms: _519  and  _520
REMARK  214  A    between atoms: _523  and  _525
REMARK  215  A    between atoms: _525  and  _526
REMARK  216  A    between atoms: _525  and  _528
REMARK  217  A    between atoms: _528  and  _529
REMARK  218  A    between atoms: _532  and  _534
REMARK  219  A    between atoms: _534  and  _535
REMARK  220  A    between atoms: _537  and  _539
REMARK  221  A    between atoms: _539  and  _540
REMARK  222  A    between atoms: _539  and  _542
REMARK  223  A    between atoms: _542  and  _543
REMARK  224  A    between atoms: _543  and  _544
REMARK  225  A    between atoms: _544  and  _545
REMARK  226  A    between atoms: _554  and  _556
REMARK  227  A    between atoms: _556  and  _557
REMARK  228  A    between atoms: _556  and  _559
REMARK  229  A    between atoms: _559  and  _560
REMARK                            x       y       z     vdW  Elec       q    Type
REMARK                         _______ _______ _______ _____ _____    ______ ____
ROOT
ATOM      1  O   HOH     1      20.022  28.449  18.909  0.00  0.00    +0.000 OA
ENDROOT
TORSDOF 0
REMARK  Name = ../refined-set-2016/4kb9/4kb9_pocket.pdb
REMARK  229 active torsions:
REMARK  status: ('A' for Active; 'I' for Inactive)
REMARK    1  A    between atoms: _1  and  _3
REMARK    2  A    between atoms: _3  and  _4
REMARK    3  A    between atoms: _3  and  _6
REMARK    4  A    between atoms: _6  and  _7
REMARK    5  A    between atoms: _7  and  _8
REMARK    6  A    between atoms: _8  and  _9
REMARK    7  A    between atoms: _18  and  _20
REMARK    8  A    between atoms: _20  and  _21
REMARK    9  A    between atoms: _20  and  _23
REMARK   10  A    between atoms: _23  and  _24
REMARK   11  A    between atoms: _27  and  _29
REMARK   12  A    between atoms: _29  and  _30
REMARK   13  A    between atoms: _29  and  _32
REMARK   14  A    between atoms: _32  and  _33
REMARK   15  A    between atoms: _36  and  _38
REMARK   16  A    between atoms: _38  and  _39
REMARK   17  A    between atoms: _38  and  _41
REMARK   18  A    between atoms: _41  and  _42
REMARK   19  A    between atoms: _45  and  _47
REMARK   20  A    between atoms: _47  and  _48
REMARK   21  A    between atoms: _47  and  _50
REMARK   22  A    between atoms: _50  and  _51
REMARK   23  A    between atoms: _54  and  _56
REMARK   24  A    between atoms: _56  and  _57
REMARK   25  A    between atoms: _59  and  _61
REMARK   26  A    between atoms: _61  and  _62
REMARK   27  A    between atoms: _65  and  _67
REMARK   28  A    between atoms: _67  and  _68
REMARK   29  A    between atoms: _67  and  _70
REMARK   30  A    between atoms: _70  and  _71
REMARK   31  A    between atoms: _74  and  _76
REMARK   32  A    between atoms: _76  and  _77
REMARK   33  A    between atoms: _76  and  _79
REMARK   34  A    between atoms: _79  and  _80
REMARK   35  A    between atoms: _83  and  _85
REMARK   36  A    between atoms: _85  and  _86
REMARK   37  A    between atoms: _85  and  _88
REMARK   38  A    between atoms: _88  and  _89
REMARK   39  A    between atoms: _92  and  _94
REMARK   40  A    between atoms: _94  and  _95
REMARK   41  A    between atoms: _94  and  _97
REMARK   42  A    between atoms: _100  and  _102
REMARK   43  A    between atoms: _102  and  _103
REMARK   44  A    between atoms: _102  and  _105
REMARK   45  A    between atoms: _105  and  _106
REMARK   46  A    between atoms: _106  and  _107
REMARK   47  A    between atoms: _107  and  _108
REMARK   48  A    between atoms: _108  and  _109
REMARK   49  A    between atoms: _113  and  _115
REMARK   50  A    between atoms: _115  and  _116
REMARK   51  A    between atoms: _115  and  _118
REMARK   52  A    between atoms: _118  and  _119
REMARK   53  A    between atoms: _119  and  _120
REMARK   54  A    between atoms: _122  and  _124
REMARK   55  A    between atoms: _124  and  _125
REMARK   56  A    between atoms: _124  and  _127
REMARK   57  A    between atoms: _127  and  _128
REMARK   58  A    between atoms: _131  and  _133
REMARK   59  A    between atoms: _133  and  _134
REMARK   60  A    between atoms: _136  and  _138
REMARK   61  A    between atoms: _138  and  _139
REMARK   62  A    between atoms: _141  and  _143
REMARK   63  A    between atoms: _143  and  _144
REMARK   64  A    between atoms: _143  and  _146
REMARK   65  A    between atoms: _146  and  _147
REMARK   66  A    between atoms: _150  and  _152
REMARK   67  A    between atoms: _152  and  _153
REMARK   68  A    between atoms: _155  and  _157
REMARK   69  A    between atoms: _157  and  _158
REMARK   70  A    between atoms: _160  and  _162
REMARK   71  A    between atoms: _162  and  _163
REMARK   72  A    between atoms: _162  and  _165
REMARK   73  A    between atoms: _165  and  _166
REMARK   74  A    between atoms: _172  and  _174
REMARK   75  A    between atoms: _174  and  _175
REMARK   76  A    between atoms: _174  and  _177
REMARK   77  A    between atoms: _177  and  _178
REMARK   78  A    between atoms: _181  and  _183
REMARK   79  A    between atoms: _183  and  _184
REMARK   80  A    between atoms: _183  and  _186
REMARK   81  A    between atoms: _189  and  _191
REMARK   82  A    between atoms: _191  and  _192
REMARK   83  A    between atoms: _191  and  _194
REMARK   84  A    between atoms: _194  and  _195
REMARK   85  A    between atoms: _198  and  _200
REMARK   86  A    between atoms: _200  and  _201
REMARK   87  A    between atoms: _200  and  _203
REMARK   88  A    between atoms: _203  and  _204
REMARK   89  A    between atoms: _208  and  _209
REMARK   90  A    between atoms: _214  and  _216
REMARK   91  A    between atoms: _216  and  _217
REMARK   92  A    between atoms: _216  and  _219
REMARK   93  A    between atoms: _222  and  _224
REMARK   94  A    between atoms: _224  and  _225
REMARK   95  A    between atoms: _224  and  _227
REMARK   96  A    between atoms: _227  and  _228
REMARK   97  A    between atoms: _233  and  _235
REMARK   98  A    between atoms: _235  and  _236
REMARK   99  A    between atoms: _235  and  _238
REMARK  100  A    between atoms: _238  and  _239
REMARK  101  A    between atoms: _242  and  _244
REMARK  102  A    between atoms: _244  and  _245
REMARK  103  A    between atoms: _247  and  _249
REMARK  104  A    between atoms: _249  and  _250
REMARK  105  A    between atoms: _249  and  _252
REMARK  106  A    between atoms: _252  and  _253
REMARK  107  A    between atoms: _253  and  _254
REMARK  108  A    between atoms: _254  and  _255
REMARK  109  A    between atoms: _264  and  _266
REMARK  110  A    between atoms: _266  and  _267
REMARK  111  A    between atoms: _266  and  _269
REMARK  112  A    between atoms: _269  and  _270
REMARK  113  A    between atoms: _275  and  _277
REMARK  114  A    between atoms: _277  and  _278
REMARK  115  A    between atoms: _277  and  _280
REMARK  116  A    between atoms: _280  and  _281
REMARK  117  A    between atoms: _281  and  _282
REMARK  118  A    between atoms: _282  and  _283
REMARK  119  A    between atoms: _292  and  _294
REMARK  120  A    between atoms: _294  and  _295
REMARK  121  A    between atoms: _294  and  _297
REMARK  122  A    between atoms: _297  and  _298
REMARK  123  A    between atoms: _301  and  _303
REMARK  124  A    between atoms: _303  and  _304
REMARK  125  A    between atoms: _303  and  _306
REMARK  126  A    between atoms: _306  and  _307
REMARK  127  A    between atoms: _310  and  _312
REMARK  128  A    between atoms: _312  and  _313
REMARK  129  A    between atoms: _312  and  _315
REMARK  130  A    between atoms: _315  and  _316
REMARK  131  A    between atoms: _319  and  _321
REMARK  132  A    between atoms: _321  and  _322
REMARK  133  A    between atoms: _321  and  _324
REMARK  134  A    between atoms: _324  and  _325
REMARK  135  A    between atoms: _328  and  _330
REMARK  136  A    between atoms: _330  and  _331
REMARK  137  A    between atoms: _333  and  _335
REMARK  138  A    between atoms: _335  and  _336
REMARK  139  A    between atoms: _339  and  _341
REMARK  140  A    between atoms: _341  and  _342
REMARK  141  A    between atoms: _341  and  _344
REMARK  142  A    between atoms: _344  and  _345
REMARK  143  A    between atoms: _348  and  _350
REMARK  144  A    between atoms: _350  and  _351
REMARK  145  A    between atoms: _350  and  _353
REMARK  146  A    between atoms: _353  and  _354
REMARK  147  A    between atoms: _357  and  _359
REMARK  148  A    between atoms: _359  and  _360
REMARK  149  A    between atoms: _359  and  _362
REMARK  150  A    between atoms: _362  and  _363
REMARK  151  A    between atoms: _366  and  _368
REMARK  152  A    between atoms: _368  and  _369
REMARK  153  A    between atoms: _368  and  _371
REMARK  154  A    between atoms: _374  and  _376
REMARK  155  A    between atoms: _376  and  _377
REMARK  156  A    between atoms: _376  and  _379
REMARK  157  A    between atoms: _379  and  _380
REMARK  158  A    between atoms: _380  and  _381
REMARK  159  A    between atoms: _381  and  _382
REMARK  160  A    between atoms: _382  and  _383
REMARK  161  A    between atoms: _387  and  _389
REMARK  162  A    between atoms: _389  and  _390
REMARK  163  A    between atoms: _389  and  _392
REMARK  164  A    between atoms: _392  and  _393
REMARK  165  A    between atoms: _393  and  _394
REMARK  166  A    between atoms: _396  and  _398
REMARK  167  A    between atoms: _398  and  _399
REMARK  168  A    between atoms: _398  and  _401
REMARK  169  A    between atoms: _401  and  _402
REMARK  170  A    between atoms: _405  and  _407
REMARK  171  A    between atoms: _407  and  _408
REMARK  172  A    between atoms: _410  and  _412
REMARK  173  A    between atoms: _412  and  _413
REMARK  174  A    between atoms: _415  and  _417
REMARK  175  A    between atoms: _417  and  _418
REMARK  176  A    between atoms: _417  and  _420
REMARK  177  A    between atoms: _420  and  _421
REMARK  178  A    between atoms: _424  and  _426
REMARK  179  A    between atoms: _426  and  _427
REMARK  180  A    between atoms: _429  and  _431
REMARK  181  A    between atoms: _431  and  _432
REMARK  182  A    between atoms: _434  and  _436
REMARK  183  A    between atoms: _436  and  _437
REMARK  184  A    between atoms: _436  and  _439
REMARK  185  A    between atoms: _439  and  _440
REMARK  186  A    between atoms: _446  and  _448
REMARK  187  A    between atoms: _448  and  _449
REMARK  188  A    between atoms: _448  and  _451
REMARK  189  A    between atoms: _451  and  _452
REMARK  190  A    between atoms: _455  and  _457
REMARK  191  A    between atoms: _457  and  _458
REMARK  192  A    between atoms: _457  and  _460
REMARK  193  A    between atoms: _463  and  _465
REMARK  194  A    between atoms: _465  and  _466
REMARK  195  A    between atoms: _465  and  _468
REMARK  196  A    between atoms: _468  and  _469
REMARK  197  A    between atoms: _473  and  _474
REMARK  198  A    between atoms: _479  and  _481
REMARK  199  A    between atoms: _481  and  _482
REMARK  200  A    between atoms: _481  and  _484
REMARK  201  A    between atoms: _484  and  _485
REMARK  202  A    between atoms: _489  and  _490
REMARK  203  A    between atoms: _495  and  _497
REMARK  204  A    between atoms: _497  and  _498
REMARK  205  A    between atoms: _497  and  _500
REMARK  206  A    between atoms: _503  and  _505
REMARK  207  A    between atoms: _505  and  _506
REMARK  208  A    between atoms: _505  and  _508
REMARK  209  A    between atoms: _508  and  _509
REMARK  210  A    between atoms: _514  and  _516
REMARK  211  A    between atoms: _516  and  _517
REMARK  212  A    between atoms: _516  and  _519
REMARK  213  A    between atoms: _519  and  _520
REMARK  214  A    between atoms: _523  and  _525
REMARK  215  A    between atoms: _525  and  _526
REMARK  216  A    between atoms: _525  and  _528
REMARK  217  A    between atoms: _528  and  _529
REMARK  218  A    between atoms: _532  and  _534
REMARK  219  A    between atoms: _534  and  _535
REMARK  220  A    between atoms: _537  and  _539
REMARK  221  A    between atoms: _539  and  _540
REMARK  222  A    between atoms: _539  and  _542
REMARK  223  A    between atoms: _542  and  _543
REMARK  224  A    between atoms: _543  and  _544
REMARK  225  A    between atoms: _544  and  _545
REMARK  226  A    between atoms: _554  and  _556
REMARK  227  A    between atoms: _556  and  _557
REMARK  228  A    between atoms: _556  and  _559
REMARK  229  A    between atoms: _559  and  _560
REMARK                            x       y       z     vdW  Elec       q    Type
REMARK                         _______ _______ _______ _____ _____    ______ ____
ROOT
ATOM      1  O   HOH     1      22.096  27.555  25.435  0.00  0.00    +0.000 OA
ENDROOT
TORSDOF 0
REMARK  Name = ../refined-set-2016/4kb9/4kb9_pocket.pdb
REMARK  229 active torsions:
REMARK  status: ('A' for Active; 'I' for Inactive)
REMARK    1  A    between atoms: _1  and  _3
REMARK    2  A    between atoms: _3  and  _4
REMARK    3  A    between atoms: _3  and  _6
REMARK    4  A    between atoms: _6  and  _7
REMARK    5  A    between atoms: _7  and  _8
REMARK    6  A    between atoms: _8  and  _9
REMARK    7  A    between atoms: _18  and  _20
REMARK    8  A    between atoms: _20  and  _21
REMARK    9  A    between atoms: _20  and  _23
REMARK   10  A    between atoms: _23  and  _24
REMARK   11  A    between atoms: _27  and  _29
REMARK   12  A    between atoms: _29  and  _30
REMARK   13  A    between atoms: _29  and  _32
REMARK   14  A    between atoms: _32  and  _33
REMARK   15  A    between atoms: _36  and  _38
REMARK   16  A    between atoms: _38  and  _39
REMARK   17  A    between atoms: _38  and  _41
REMARK   18  A    between atoms: _41  and  _42
REMARK   19  A    between atoms: _45  and  _47
REMARK   20  A    between atoms: _47  and  _48
REMARK   21  A    between atoms: _47  and  _50
REMARK   22  A    between atoms: _50  and  _51
REMARK   23  A    between atoms: _54  and  _56
REMARK   24  A    between atoms: _56  and  _57
REMARK   25  A    between atoms: _59  and  _61
REMARK   26  A    between atoms: _61  and  _62
REMARK   27  A    between atoms: _65  and  _67
REMARK   28  A    between atoms: _67  and  _68
REMARK   29  A    between atoms: _67  and  _70
REMARK   30  A    between atoms: _70  and  _71
REMARK   31  A    between atoms: _74  and  _76
REMARK   32  A    between atoms: _76  and  _77
REMARK   33  A    between atoms: _76  and  _79
REMARK   34  A    between atoms: _79  and  _80
REMARK   35  A    between atoms: _83  and  _85
REMARK   36  A    between atoms: _85  and  _86
REMARK   37  A    between atoms: _85  and  _88
REMARK   38  A    between atoms: _88  and  _89
REMARK   39  A    between atoms: _92  and  _94
REMARK   40  A    between atoms: _94  and  _95
REMARK   41  A    between atoms: _94  and  _97
REMARK   42  A    between atoms: _100  and  _102
REMARK   43  A    between atoms: _102  and  _103
REMARK   44  A    between atoms: _102  and  _105
REMARK   45  A    between atoms: _105  and  _106
REMARK   46  A    between atoms: _106  and  _107
REMARK   47  A    between atoms: _107  and  _108
REMARK   48  A    between atoms: _108  and  _109
REMARK   49  A    between atoms: _113  and  _115
REMARK   50  A    between atoms: _115  and  _116
REMARK   51  A    between atoms: _115  and  _118
REMARK   52  A    between atoms: _118  and  _119
REMARK   53  A    between atoms: _119  and  _120
REMARK   54  A    between atoms: _122  and  _124
REMARK   55  A    between atoms: _124  and  _125
REMARK   56  A    between atoms: _124  and  _127
REMARK   57  A    between atoms: _127  and  _128
REMARK   58  A    between atoms: _131  and  _133
REMARK   59  A    between atoms: _133  and  _134
REMARK   60  A    between atoms: _136  and  _138
REMARK   61  A    between atoms: _138  and  _139
REMARK   62  A    between atoms: _141  and  _143
REMARK   63  A    between atoms: _143  and  _144
REMARK   64  A    between atoms: _143  and  _146
REMARK   65  A    between atoms: _146  and  _147
REMARK   66  A    between atoms: _150  and  _152
REMARK   67  A    between atoms: _152  and  _153
REMARK   68  A    between atoms: _155  and  _157
REMARK   69  A    between atoms: _157  and  _158
REMARK   70  A    between atoms: _160  and  _162
REMARK   71  A    between atoms: _162  and  _163
REMARK   72  A    between atoms: _162  and  _165
REMARK   73  A    between atoms: _165  and  _166
REMARK   74  A    between atoms: _172  and  _174
REMARK   75  A    between atoms: _174  and  _175
REMARK   76  A    between atoms: _174  and  _177
REMARK   77  A    between atoms: _177  and  _178
REMARK   78  A    between atoms: _181  and  _183
REMARK   79  A    between atoms: _183  and  _184
REMARK   80  A    between atoms: _183  and  _186
REMARK   81  A    between atoms: _189  and  _191
REMARK   82  A    between atoms: _191  and  _192
REMARK   83  A    between atoms: _191  and  _194
REMARK   84  A    between atoms: _194  and  _195
REMARK   85  A    between atoms: _198  and  _200
REMARK   86  A    between atoms: _200  and  _201
REMARK   87  A    between atoms: _200  and  _203
REMARK   88  A    between atoms: _203  and  _204
REMARK   89  A    between atoms: _208  and  _209
REMARK   90  A    between atoms: _214  and  _216
REMARK   91  A    between atoms: _216  and  _217
REMARK   92  A    between atoms: _216  and  _219
REMARK   93  A    between atoms: _222  and  _224
REMARK   94  A    between atoms: _224  and  _225
REMARK   95  A    between atoms: _224  and  _227
REMARK   96  A    between atoms: _227  and  _228
REMARK   97  A    between atoms: _233  and  _235
REMARK   98  A    between atoms: _235  and  _236
REMARK   99  A    between atoms: _235  and  _238
REMARK  100  A    between atoms: _238  and  _239
REMARK  101  A    between atoms: _242  and  _244
REMARK  102  A    between atoms: _244  and  _245
REMARK  103  A    between atoms: _247  and  _249
REMARK  104  A    between atoms: _249  and  _250
REMARK  105  A    between atoms: _249  and  _252
REMARK  106  A    between atoms: _252  and  _253
REMARK  107  A    between atoms: _253  and  _254
REMARK  108  A    between atoms: _254  and  _255
REMARK  109  A    between atoms: _264  and  _266
REMARK  110  A    between atoms: _266  and  _267
REMARK  111  A    between atoms: _266  and  _269
REMARK  112  A    between atoms: _269  and  _270
REMARK  113  A    between atoms: _275  and  _277
REMARK  114  A    between atoms: _277  and  _278
REMARK  115  A    between atoms: _277  and  _280
REMARK  116  A    between atoms: _280  and  _281
REMARK  117  A    between atoms: _281  and  _282
REMARK  118  A    between atoms: _282  and  _283
REMARK  119  A    between atoms: _292  and  _294
REMARK  120  A    between atoms: _294  and  _295
REMARK  121  A    between atoms: _294  and  _297
REMARK  122  A    between atoms: _297  and  _298
REMARK  123  A    between atoms: _301  and  _303
REMARK  124  A    between atoms: _303  and  _304
REMARK  125  A    between atoms: _303  and  _306
REMARK  126  A    between atoms: _306  and  _307
REMARK  127  A    between atoms: _310  and  _312
REMARK  128  A    between atoms: _312  and  _313
REMARK  129  A    between atoms: _312  and  _315
REMARK  130  A    between atoms: _315  and  _316
REMARK  131  A    between atoms: _319  and  _321
REMARK  132  A    between atoms: _321  and  _322
REMARK  133  A    between atoms: _321  and  _324
REMARK  134  A    between atoms: _324  and  _325
REMARK  135  A    between atoms: _328  and  _330
REMARK  136  A    between atoms: _330  and  _331
REMARK  137  A    between atoms: _333  and  _335
REMARK  138  A    between atoms: _335  and  _336
REMARK  139  A    between atoms: _339  and  _341
REMARK  140  A    between atoms: _341  and  _342
REMARK  141  A    between atoms: _341  and  _344
REMARK  142  A    between atoms: _344  and  _345
REMARK  143  A    between atoms: _348  and  _350
REMARK  144  A    between atoms: _350  and  _351
REMARK  145  A    between atoms: _350  and  _353
REMARK  146  A    between atoms: _353  and  _354
REMARK  147  A    between atoms: _357  and  _359
REMARK  148  A    between atoms: _359  and  _360
REMARK  149  A    between atoms: _359  and  _362
REMARK  150  A    between atoms: _362  and  _363
REMARK  151  A    between atoms: _366  and  _368
REMARK  152  A    between atoms: _368  and  _369
REMARK  153  A    between atoms: _368  and  _371
REMARK  154  A    between atoms: _374  and  _376
REMARK  155  A    between atoms: _376  and  _377
REMARK  156  A    between atoms: _376  and  _379
REMARK  157  A    between atoms: _379  and  _380
REMARK  158  A    between atoms: _380  and  _381
REMARK  159  A    between atoms: _381  and  _382
REMARK  160  A    between atoms: _382  and  _383
REMARK  161  A    between atoms: _387  and  _389
REMARK  162  A    between atoms: _389  and  _390
REMARK  163  A    between atoms: _389  and  _392
REMARK  164  A    between atoms: _392  and  _393
REMARK  165  A    between atoms: _393  and  _394
REMARK  166  A    between atoms: _396  and  _398
REMARK  167  A    between atoms: _398  and  _399
REMARK  168  A    between atoms: _398  and  _401
REMARK  169  A    between atoms: _401  and  _402
REMARK  170  A    between atoms: _405  and  _407
REMARK  171  A    between atoms: _407  and  _408
REMARK  172  A    between atoms: _410  and  _412
REMARK  173  A    between atoms: _412  and  _413
REMARK  174  A    between atoms: _415  and  _417
REMARK  175  A    between atoms: _417  and  _418
REMARK  176  A    between atoms: _417  and  _420
REMARK  177  A    between atoms: _420  and  _421
REMARK  178  A    between atoms: _424  and  _426
REMARK  179  A    between atoms: _426  and  _427
REMARK  180  A    between atoms: _429  and  _431
REMARK  181  A    between atoms: _431  and  _432
REMARK  182  A    between atoms: _434  and  _436
REMARK  183  A    between atoms: _436  and  _437
REMARK  184  A    between atoms: _436  and  _439
REMARK  185  A    between atoms: _439  and  _440
REMARK  186  A    between atoms: _446  and  _448
REMARK  187  A    between atoms: _448  and  _449
REMARK  188  A    between atoms: _448  and  _451
REMARK  189  A    between atoms: _451  and  _452
REMARK  190  A    between atoms: _455  and  _457
REMARK  191  A    between atoms: _457  and  _458
REMARK  192  A    between atoms: _457  and  _460
REMARK  193  A    between atoms: _463  and  _465
REMARK  194  A    between atoms: _465  and  _466
REMARK  195  A    between atoms: _465  and  _468
REMARK  196  A    between atoms: _468  and  _469
REMARK  197  A    between atoms: _473  and  _474
REMARK  198  A    between atoms: _479  and  _481
REMARK  199  A    between atoms: _481  and  _482
REMARK  200  A    between atoms: _481  and  _484
REMARK  201  A    between atoms: _484  and  _485
REMARK  202  A    between atoms: _489  and  _490
REMARK  203  A    between atoms: _495  and  _497
REMARK  204  A    between atoms: _497  and  _498
REMARK  205  A    between atoms: _497  and  _500
REMARK  206  A    between atoms: _503  and  _505
REMARK  207  A    between atoms: _505  and  _506
REMARK  208  A    between atoms: _505  and  _508
REMARK  209  A    between atoms: _508  and  _509
REMARK  210  A    between atoms: _514  and  _516
REMARK  211  A    between atoms: _516  and  _517
REMARK  212  A    between atoms: _516  and  _519
REMARK  213  A    between atoms: _519  and  _520
REMARK  214  A    between atoms: _523  and  _525
REMARK  215  A    between atoms: _525  and  _526
REMARK  216  A    between atoms: _525  and  _528
REMARK  217  A    between atoms: _528  and  _529
REMARK  218  A    between atoms: _532  and  _534
REMARK  219  A    between atoms: _534  and  _535
REMARK  220  A    between atoms: _537  and  _539
REMARK  221  A    between atoms: _539  and  _540
REMARK  222  A    between atoms: _539  and  _542
REMARK  223  A    between atoms: _542  and  _543
REMARK  224  A    between atoms: _543  and  _544
REMARK  225  A    between atoms: _544  and  _545
REMARK  226  A    between atoms: _554  and  _556
REMARK  227  A    between atoms: _556  and  _557
REMARK  228  A    between atoms: _556  and  _559
REMARK  229  A    between atoms: _559  and  _560
REMARK                            x       y       z     vdW  Elec       q    Type
REMARK                         _______ _______ _______ _____ _____    ______ ____
ROOT
ATOM      1  O   HOH     1      23.320  27.761  20.963  0.00  0.00    +0.000 OA
ENDROOT
TORSDOF 0
REMARK  Name = ../refined-set-2016/4kb9/4kb9_pocket.pdb
REMARK  229 active torsions:
REMARK  status: ('A' for Active; 'I' for Inactive)
REMARK    1  A    between atoms: _1  and  _3
REMARK    2  A    between atoms: _3  and  _4
REMARK    3  A    between atoms: _3  and  _6
REMARK    4  A    between atoms: _6  and  _7
REMARK    5  A    between atoms: _7  and  _8
REMARK    6  A    between atoms: _8  and  _9
REMARK    7  A    between atoms: _18  and  _20
REMARK    8  A    between atoms: _20  and  _21
REMARK    9  A    between atoms: _20  and  _23
REMARK   10  A    between atoms: _23  and  _24
REMARK   11  A    between atoms: _27  and  _29
REMARK   12  A    between atoms: _29  and  _30
REMARK   13  A    between atoms: _29  and  _32
REMARK   14  A    between atoms: _32  and  _33
REMARK   15  A    between atoms: _36  and  _38
REMARK   16  A    between atoms: _38  and  _39
REMARK   17  A    between atoms: _38  and  _41
REMARK   18  A    between atoms: _41  and  _42
REMARK   19  A    between atoms: _45  and  _47
REMARK   20  A    between atoms: _47  and  _48
REMARK   21  A    between atoms: _47  and  _50
REMARK   22  A    between atoms: _50  and  _51
REMARK   23  A    between atoms: _54  and  _56
REMARK   24  A    between atoms: _56  and  _57
REMARK   25  A    between atoms: _59  and  _61
REMARK   26  A    between atoms: _61  and  _62
REMARK   27  A    between atoms: _65  and  _67
REMARK   28  A    between atoms: _67  and  _68
REMARK   29  A    between atoms: _67  and  _70
REMARK   30  A    between atoms: _70  and  _71
REMARK   31  A    between atoms: _74  and  _76
REMARK   32  A    between atoms: _76  and  _77
REMARK   33  A    between atoms: _76  and  _79
REMARK   34  A    between atoms: _79  and  _80
REMARK   35  A    between atoms: _83  and  _85
REMARK   36  A    between atoms: _85  and  _86
REMARK   37  A    between atoms: _85  and  _88
REMARK   38  A    between atoms: _88  and  _89
REMARK   39  A    between atoms: _92  and  _94
REMARK   40  A    between atoms: _94  and  _95
REMARK   41  A    between atoms: _94  and  _97
REMARK   42  A    between atoms: _100  and  _102
REMARK   43  A    between atoms: _102  and  _103
REMARK   44  A    between atoms: _102  and  _105
REMARK   45  A    between atoms: _105  and  _106
REMARK   46  A    between atoms: _106  and  _107
REMARK   47  A    between atoms: _107  and  _108
REMARK   48  A    between atoms: _108  and  _109
REMARK   49  A    between atoms: _113  and  _115
REMARK   50  A    between atoms: _115  and  _116
REMARK   51  A    between atoms: _115  and  _118
REMARK   52  A    between atoms: _118  and  _119
REMARK   53  A    between atoms: _119  and  _120
REMARK   54  A    between atoms: _122  and  _124
REMARK   55  A    between atoms: _124  and  _125
REMARK   56  A    between atoms: _124  and  _127
REMARK   57  A    between atoms: _127  and  _128
REMARK   58  A    between atoms: _131  and  _133
REMARK   59  A    between atoms: _133  and  _134
REMARK   60  A    between atoms: _136  and  _138
REMARK   61  A    between atoms: _138  and  _139
REMARK   62  A    between atoms: _141  and  _143
REMARK   63  A    between atoms: _143  and  _144
REMARK   64  A    between atoms: _143  and  _146
REMARK   65  A    between atoms: _146  and  _147
REMARK   66  A    between atoms: _150  and  _152
REMARK   67  A    between atoms: _152  and  _153
REMARK   68  A    between atoms: _155  and  _157
REMARK   69  A    between atoms: _157  and  _158
REMARK   70  A    between atoms: _160  and  _162
REMARK   71  A    between atoms: _162  and  _163
REMARK   72  A    between atoms: _162  and  _165
REMARK   73  A    between atoms: _165  and  _166
REMARK   74  A    between atoms: _172  and  _174
REMARK   75  A    between atoms: _174  and  _175
REMARK   76  A    between atoms: _174  and  _177
REMARK   77  A    between atoms: _177  and  _178
REMARK   78  A    between atoms: _181  and  _183
REMARK   79  A    between atoms: _183  and  _184
REMARK   80  A    between atoms: _183  and  _186
REMARK   81  A    between atoms: _189  and  _191
REMARK   82  A    between atoms: _191  and  _192
REMARK   83  A    between atoms: _191  and  _194
REMARK   84  A    between atoms: _194  and  _195
REMARK   85  A    between atoms: _198  and  _200
REMARK   86  A    between atoms: _200  and  _201
REMARK   87  A    between atoms: _200  and  _203
REMARK   88  A    between atoms: _203  and  _204
REMARK   89  A    between atoms: _208  and  _209
REMARK   90  A    between atoms: _214  and  _216
REMARK   91  A    between atoms: _216  and  _217
REMARK   92  A    between atoms: _216  and  _219
REMARK   93  A    between atoms: _222  and  _224
REMARK   94  A    between atoms: _224  and  _225
REMARK   95  A    between atoms: _224  and  _227
REMARK   96  A    between atoms: _227  and  _228
REMARK   97  A    between atoms: _233  and  _235
REMARK   98  A    between atoms: _235  and  _236
REMARK   99  A    between atoms: _235  and  _238
REMARK  100  A    between atoms: _238  and  _239
REMARK  101  A    between atoms: _242  and  _244
REMARK  102  A    between atoms: _244  and  _245
REMARK  103  A    between atoms: _247  and  _249
REMARK  104  A    between atoms: _249  and  _250
REMARK  105  A    between atoms: _249  and  _252
REMARK  106  A    between atoms: _252  and  _253
REMARK  107  A    between atoms: _253  and  _254
REMARK  108  A    between atoms: _254  and  _255
REMARK  109  A    between atoms: _264  and  _266
REMARK  110  A    between atoms: _266  and  _267
REMARK  111  A    between atoms: _266  and  _269
REMARK  112  A    between atoms: _269  and  _270
REMARK  113  A    between atoms: _275  and  _277
REMARK  114  A    between atoms: _277  and  _278
REMARK  115  A    between atoms: _277  and  _280
REMARK  116  A    between atoms: _280  and  _281
REMARK  117  A    between atoms: _281  and  _282
REMARK  118  A    between atoms: _282  and  _283
REMARK  119  A    between atoms: _292  and  _294
REMARK  120  A    between atoms: _294  and  _295
REMARK  121  A    between atoms: _294  and  _297
REMARK  122  A    between atoms: _297  and  _298
REMARK  123  A    between atoms: _301  and  _303
REMARK  124  A    between atoms: _303  and  _304
REMARK  125  A    between atoms: _303  and  _306
REMARK  126  A    between atoms: _306  and  _307
REMARK  127  A    between atoms: _310  and  _312
REMARK  128  A    between atoms: _312  and  _313
REMARK  129  A    between atoms: _312  and  _315
REMARK  130  A    between atoms: _315  and  _316
REMARK  131  A    between atoms: _319  and  _321
REMARK  132  A    between atoms: _321  and  _322
REMARK  133  A    between atoms: _321  and  _324
REMARK  134  A    between atoms: _324  and  _325
REMARK  135  A    between atoms: _328  and  _330
REMARK  136  A    between atoms: _330  and  _331
REMARK  137  A    between atoms: _333  and  _335
REMARK  138  A    between atoms: _335  and  _336
REMARK  139  A    between atoms: _339  and  _341
REMARK  140  A    between atoms: _341  and  _342
REMARK  141  A    between atoms: _341  and  _344
REMARK  142  A    between atoms: _344  and  _345
REMARK  143  A    between atoms: _348  and  _350
REMARK  144  A    between atoms: _350  and  _351
REMARK  145  A    between atoms: _350  and  _353
REMARK  146  A    between atoms: _353  and  _354
REMARK  147  A    between atoms: _357  and  _359
REMARK  148  A    between atoms: _359  and  _360
REMARK  149  A    between atoms: _359  and  _362
REMARK  150  A    between atoms: _362  and  _363
REMARK  151  A    between atoms: _366  and  _368
REMARK  152  A    between atoms: _368  and  _369
REMARK  153  A    between atoms: _368  and  _371
REMARK  154  A    between atoms: _374  and  _376
REMARK  155  A    between atoms: _376  and  _377
REMARK  156  A    between atoms: _376  and  _379
REMARK  157  A    between atoms: _379  and  _380
REMARK  158  A    between atoms: _380  and  _381
REMARK  159  A    between atoms: _381  and  _382
REMARK  160  A    between atoms: _382  and  _383
REMARK  161  A    between atoms: _387  and  _389
REMARK  162  A    between atoms: _389  and  _390
REMARK  163  A    between atoms: _389  and  _392
REMARK  164  A    between atoms: _392  and  _393
REMARK  165  A    between atoms: _393  and  _394
REMARK  166  A    between atoms: _396  and  _398
REMARK  167  A    between atoms: _398  and  _399
REMARK  168  A    between atoms: _398  and  _401
REMARK  169  A    between atoms: _401  and  _402
REMARK  170  A    between atoms: _405  and  _407
REMARK  171  A    between atoms: _407  and  _408
REMARK  172  A    between atoms: _410  and  _412
REMARK  173  A    between atoms: _412  and  _413
REMARK  174  A    between atoms: _415  and  _417
REMARK  175  A    between atoms: _417  and  _418
REMARK  176  A    between atoms: _417  and  _420
REMARK  177  A    between atoms: _420  and  _421
REMARK  178  A    between atoms: _424  and  _426
REMARK  179  A    between atoms: _426  and  _427
REMARK  180  A    between atoms: _429  and  _431
REMARK  181  A    between atoms: _431  and  _432
REMARK  182  A    between atoms: _434  and  _436
REMARK  183  A    between atoms: _436  and  _437
REMARK  184  A    between atoms: _436  and  _439
REMARK  185  A    between atoms: _439  and  _440
REMARK  186  A    between atoms: _446  and  _448
REMARK  187  A    between atoms: _448  and  _449
REMARK  188  A    between atoms: _448  and  _451
REMARK  189  A    between atoms: _451  and  _452
REMARK  190  A    between atoms: _455  and  _457
REMARK  191  A    between atoms: _457  and  _458
REMARK  192  A    between atoms: _457  and  _460
REMARK  193  A    between atoms: _463  and  _465
REMARK  194  A    between atoms: _465  and  _466
REMARK  195  A    between atoms: _465  and  _468
REMARK  196  A    between atoms: _468  and  _469
REMARK  197  A    between atoms: _473  and  _474
REMARK  198  A    between atoms: _479  and  _481
REMARK  199  A    between atoms: _481  and  _482
REMARK  200  A    between atoms: _481  and  _484
REMARK  201  A    between atoms: _484  and  _485
REMARK  202  A    between atoms: _489  and  _490
REMARK  203  A    between atoms: _495  and  _497
REMARK  204  A    between atoms: _497  and  _498
REMARK  205  A    between atoms: _497  and  _500
REMARK  206  A    between atoms: _503  and  _505
REMARK  207  A    between atoms: _505  and  _506
REMARK  208  A    between atoms: _505  and  _508
REMARK  209  A    between atoms: _508  and  _509
REMARK  210  A    between atoms: _514  and  _516
REMARK  211  A    between atoms: _516  and  _517
REMARK  212  A    between atoms: _516  and  _519
REMARK  213  A    between atoms: _519  and  _520
REMARK  214  A    between atoms: _523  and  _525
REMARK  215  A    between atoms: _525  and  _526
REMARK  216  A    between atoms: _525  and  _528
REMARK  217  A    between atoms: _528  and  _529
REMARK  218  A    between atoms: _532  and  _534
REMARK  219  A    between atoms: _534  and  _535
REMARK  220  A    between atoms: _537  and  _539
REMARK  221  A    between atoms: _539  and  _540
REMARK  222  A    between atoms: _539  and  _542
REMARK  223  A    between atoms: _542  and  _543
REMARK  224  A    between atoms: _543  and  _544
REMARK  225  A    between atoms: _544  and  _545
REMARK  226  A    between atoms: _554  and  _556
REMARK  227  A    between atoms: _556  and  _557
REMARK  228  A    between atoms: _556  and  _559
REMARK  229  A    between atoms: _559  and  _560
REMARK                            x       y       z     vdW  Elec       q    Type
REMARK                         _______ _______ _______ _____ _____    ______ ____
ROOT
ATOM      1  O   HOH     1      16.059  24.486  13.357  0.00  0.00    +0.000 OA
ENDROOT
TORSDOF 0
REMARK  Name = ../refined-set-2016/4kb9/4kb9_pocket.pdb
REMARK  229 active torsions:
REMARK  status: ('A' for Active; 'I' for Inactive)
REMARK    1  A    between atoms: _1  and  _3
REMARK    2  A    between atoms: _3  and  _4
REMARK    3  A    between atoms: _3  and  _6
REMARK    4  A    between atoms: _6  and  _7
REMARK    5  A    between atoms: _7  and  _8
REMARK    6  A    between atoms: _8  and  _9
REMARK    7  A    between atoms: _18  and  _20
REMARK    8  A    between atoms: _20  and  _21
REMARK    9  A    between atoms: _20  and  _23
REMARK   10  A    between atoms: _23  and  _24
REMARK   11  A    between atoms: _27  and  _29
REMARK   12  A    between atoms: _29  and  _30
REMARK   13  A    between atoms: _29  and  _32
REMARK   14  A    between atoms: _32  and  _33
REMARK   15  A    between atoms: _36  and  _38
REMARK   16  A    between atoms: _38  and  _39
REMARK   17  A    between atoms: _38  and  _41
REMARK   18  A    between atoms: _41  and  _42
REMARK   19  A    between atoms: _45  and  _47
REMARK   20  A    between atoms: _47  and  _48
REMARK   21  A    between atoms: _47  and  _50
REMARK   22  A    between atoms: _50  and  _51
REMARK   23  A    between atoms: _54  and  _56
REMARK   24  A    between atoms: _56  and  _57
REMARK   25  A    between atoms: _59  and  _61
REMARK   26  A    between atoms: _61  and  _62
REMARK   27  A    between atoms: _65  and  _67
REMARK   28  A    between atoms: _67  and  _68
REMARK   29  A    between atoms: _67  and  _70
REMARK   30  A    between atoms: _70  and  _71
REMARK   31  A    between atoms: _74  and  _76
REMARK   32  A    between atoms: _76  and  _77
REMARK   33  A    between atoms: _76  and  _79
REMARK   34  A    between atoms: _79  and  _80
REMARK   35  A    between atoms: _83  and  _85
REMARK   36  A    between atoms: _85  and  _86
REMARK   37  A    between atoms: _85  and  _88
REMARK   38  A    between atoms: _88  and  _89
REMARK   39  A    between atoms: _92  and  _94
REMARK   40  A    between atoms: _94  and  _95
REMARK   41  A    between atoms: _94  and  _97
REMARK   42  A    between atoms: _100  and  _102
REMARK   43  A    between atoms: _102  and  _103
REMARK   44  A    between atoms: _102  and  _105
REMARK   45  A    between atoms: _105  and  _106
REMARK   46  A    between atoms: _106  and  _107
REMARK   47  A    between atoms: _107  and  _108
REMARK   48  A    between atoms: _108  and  _109
REMARK   49  A    between atoms: _113  and  _115
REMARK   50  A    between atoms: _115  and  _116
REMARK   51  A    between atoms: _115  and  _118
REMARK   52  A    between atoms: _118  and  _119
REMARK   53  A    between atoms: _119  and  _120
REMARK   54  A    between atoms: _122  and  _124
REMARK   55  A    between atoms: _124  and  _125
REMARK   56  A    between atoms: _124  and  _127
REMARK   57  A    between atoms: _127  and  _128
REMARK   58  A    between atoms: _131  and  _133
REMARK   59  A    between atoms: _133  and  _134
REMARK   60  A    between atoms: _136  and  _138
REMARK   61  A    between atoms: _138  and  _139
REMARK   62  A    between atoms: _141  and  _143
REMARK   63  A    between atoms: _143  and  _144
REMARK   64  A    between atoms: _143  and  _146
REMARK   65  A    between atoms: _146  and  _147
REMARK   66  A    between atoms: _150  and  _152
REMARK   67  A    between atoms: _152  and  _153
REMARK   68  A    between atoms: _155  and  _157
REMARK   69  A    between atoms: _157  and  _158
REMARK   70  A    between atoms: _160  and  _162
REMARK   71  A    between atoms: _162  and  _163
REMARK   72  A    between atoms: _162  and  _165
REMARK   73  A    between atoms: _165  and  _166
REMARK   74  A    between atoms: _172  and  _174
REMARK   75  A    between atoms: _174  and  _175
REMARK   76  A    between atoms: _174  and  _177
REMARK   77  A    between atoms: _177  and  _178
REMARK   78  A    between atoms: _181  and  _183
REMARK   79  A    between atoms: _183  and  _184
REMARK   80  A    between atoms: _183  and  _186
REMARK   81  A    between atoms: _189  and  _191
REMARK   82  A    between atoms: _191  and  _192
REMARK   83  A    between atoms: _191  and  _194
REMARK   84  A    between atoms: _194  and  _195
REMARK   85  A    between atoms: _198  and  _200
REMARK   86  A    between atoms: _200  and  _201
REMARK   87  A    between atoms: _200  and  _203
REMARK   88  A    between atoms: _203  and  _204
REMARK   89  A    between atoms: _208  and  _209
REMARK   90  A    between atoms: _214  and  _216
REMARK   91  A    between atoms: _216  and  _217
REMARK   92  A    between atoms: _216  and  _219
REMARK   93  A    between atoms: _222  and  _224
REMARK   94  A    between atoms: _224  and  _225
REMARK   95  A    between atoms: _224  and  _227
REMARK   96  A    between atoms: _227  and  _228
REMARK   97  A    between atoms: _233  and  _235
REMARK   98  A    between atoms: _235  and  _236
REMARK   99  A    between atoms: _235  and  _238
REMARK  100  A    between atoms: _238  and  _239
REMARK  101  A    between atoms: _242  and  _244
REMARK  102  A    between atoms: _244  and  _245
REMARK  103  A    between atoms: _247  and  _249
REMARK  104  A    between atoms: _249  and  _250
REMARK  105  A    between atoms: _249  and  _252
REMARK  106  A    between atoms: _252  and  _253
REMARK  107  A    between atoms: _253  and  _254
REMARK  108  A    between atoms: _254  and  _255
REMARK  109  A    between atoms: _264  and  _266
REMARK  110  A    between atoms: _266  and  _267
REMARK  111  A    between atoms: _266  and  _269
REMARK  112  A    between atoms: _269  and  _270
REMARK  113  A    between atoms: _275  and  _277
REMARK  114  A    between atoms: _277  and  _278
REMARK  115  A    between atoms: _277  and  _280
REMARK  116  A    between atoms: _280  and  _281
REMARK  117  A    between atoms: _281  and  _282
REMARK  118  A    between atoms: _282  and  _283
REMARK  119  A    between atoms: _292  and  _294
REMARK  120  A    between atoms: _294  and  _295
REMARK  121  A    between atoms: _294  and  _297
REMARK  122  A    between atoms: _297  and  _298
REMARK  123  A    between atoms: _301  and  _303
REMARK  124  A    between atoms: _303  and  _304
REMARK  125  A    between atoms: _303  and  _306
REMARK  126  A    between atoms: _306  and  _307
REMARK  127  A    between atoms: _310  and  _312
REMARK  128  A    between atoms: _312  and  _313
REMARK  129  A    between atoms: _312  and  _315
REMARK  130  A    between atoms: _315  and  _316
REMARK  131  A    between atoms: _319  and  _321
REMARK  132  A    between atoms: _321  and  _322
REMARK  133  A    between atoms: _321  and  _324
REMARK  134  A    between atoms: _324  and  _325
REMARK  135  A    between atoms: _328  and  _330
REMARK  136  A    between atoms: _330  and  _331
REMARK  137  A    between atoms: _333  and  _335
REMARK  138  A    between atoms: _335  and  _336
REMARK  139  A    between atoms: _339  and  _341
REMARK  140  A    between atoms: _341  and  _342
REMARK  141  A    between atoms: _341  and  _344
REMARK  142  A    between atoms: _344  and  _345
REMARK  143  A    between atoms: _348  and  _350
REMARK  144  A    between atoms: _350  and  _351
REMARK  145  A    between atoms: _350  and  _353
REMARK  146  A    between atoms: _353  and  _354
REMARK  147  A    between atoms: _357  and  _359
REMARK  148  A    between atoms: _359  and  _360
REMARK  149  A    between atoms: _359  and  _362
REMARK  150  A    between atoms: _362  and  _363
REMARK  151  A    between atoms: _366  and  _368
REMARK  152  A    between atoms: _368  and  _369
REMARK  153  A    between atoms: _368  and  _371
REMARK  154  A    between atoms: _374  and  _376
REMARK  155  A    between atoms: _376  and  _377
REMARK  156  A    between atoms: _376  and  _379
REMARK  157  A    between atoms: _379  and  _380
REMARK  158  A    between atoms: _380  and  _381
REMARK  159  A    between atoms: _381  and  _382
REMARK  160  A    between atoms: _382  and  _383
REMARK  161  A    between atoms: _387  and  _389
REMARK  162  A    between atoms: _389  and  _390
REMARK  163  A    between atoms: _389  and  _392
REMARK  164  A    between atoms: _392  and  _393
REMARK  165  A    between atoms: _393  and  _394
REMARK  166  A    between atoms: _396  and  _398
REMARK  167  A    between atoms: _398  and  _399
REMARK  168  A    between atoms: _398  and  _401
REMARK  169  A    between atoms: _401  and  _402
REMARK  170  A    between atoms: _405  and  _407
REMARK  171  A    between atoms: _407  and  _408
REMARK  172  A    between atoms: _410  and  _412
REMARK  173  A    between atoms: _412  and  _413
REMARK  174  A    between atoms: _415  and  _417
REMARK  175  A    between atoms: _417  and  _418
REMARK  176  A    between atoms: _417  and  _420
REMARK  177  A    between atoms: _420  and  _421
REMARK  178  A    between atoms: _424  and  _426
REMARK  179  A    between atoms: _426  and  _427
REMARK  180  A    between atoms: _429  and  _431
REMARK  181  A    between atoms: _431  and  _432
REMARK  182  A    between atoms: _434  and  _436
REMARK  183  A    between atoms: _436  and  _437
REMARK  184  A    between atoms: _436  and  _439
REMARK  185  A    between atoms: _439  and  _440
REMARK  186  A    between atoms: _446  and  _448
REMARK  187  A    between atoms: _448  and  _449
REMARK  188  A    between atoms: _448  and  _451
REMARK  189  A    between atoms: _451  and  _452
REMARK  190  A    between atoms: _455  and  _457
REMARK  191  A    between atoms: _457  and  _458
REMARK  192  A    between atoms: _457  and  _460
REMARK  193  A    between atoms: _463  and  _465
REMARK  194  A    between atoms: _465  and  _466
REMARK  195  A    between atoms: _465  and  _468
REMARK  196  A    between atoms: _468  and  _469
REMARK  197  A    between atoms: _473  and  _474
REMARK  198  A    between atoms: _479  and  _481
REMARK  199  A    between atoms: _481  and  _482
REMARK  200  A    between atoms: _481  and  _484
REMARK  201  A    between atoms: _484  and  _485
REMARK  202  A    between atoms: _489  and  _490
REMARK  203  A    between atoms: _495  and  _497
REMARK  204  A    between atoms: _497  and  _498
REMARK  205  A    between atoms: _497  and  _500
REMARK  206  A    between atoms: _503  and  _505
REMARK  207  A    between atoms: _505  and  _506
REMARK  208  A    between atoms: _505  and  _508
REMARK  209  A    between atoms: _508  and  _509
REMARK  210  A    between atoms: _514  and  _516
REMARK  211  A    between atoms: _516  and  _517
REMARK  212  A    between atoms: _516  and  _519
REMARK  213  A    between atoms: _519  and  _520
REMARK  214  A    between atoms: _523  and  _525
REMARK  215  A    between atoms: _525  and  _526
REMARK  216  A    between atoms: _525  and  _528
REMARK  217  A    between atoms: _528  and  _529
REMARK  218  A    between atoms: _532  and  _534
REMARK  219  A    between atoms: _534  and  _535
REMARK  220  A    between atoms: _537  and  _539
REMARK  221  A    between atoms: _539  and  _540
REMARK  222  A    between atoms: _539  and  _542
REMARK  223  A    between atoms: _542  and  _543
REMARK  224  A    between atoms: _543  and  _544
REMARK  225  A    between atoms: _544  and  _545
REMARK  226  A    between atoms: _554  and  _556
REMARK  227  A    between atoms: _556  and  _557
REMARK  228  A    between atoms: _556  and  _559
REMARK  229  A    between atoms: _559  and  _560
REMARK                            x       y       z     vdW  Elec       q    Type
REMARK                         _______ _______ _______ _____ _____    ______ ____
ROOT
ATOM      1  O   HOH     1      17.873  25.192  10.944  0.00  0.00    +0.000 OA
ENDROOT
TORSDOF 0
REMARK  Name = ../refined-set-2016/4kb9/4kb9_pocket.pdb
REMARK  229 active torsions:
REMARK  status: ('A' for Active; 'I' for Inactive)
REMARK    1  A    between atoms: _1  and  _3
REMARK    2  A    between atoms: _3  and  _4
REMARK    3  A    between atoms: _3  and  _6
REMARK    4  A    between atoms: _6  and  _7
REMARK    5  A    between atoms: _7  and  _8
REMARK    6  A    between atoms: _8  and  _9
REMARK    7  A    between atoms: _18  and  _20
REMARK    8  A    between atoms: _20  and  _21
REMARK    9  A    between atoms: _20  and  _23
REMARK   10  A    between atoms: _23  and  _24
REMARK   11  A    between atoms: _27  and  _29
REMARK   12  A    between atoms: _29  and  _30
REMARK   13  A    between atoms: _29  and  _32
REMARK   14  A    between atoms: _32  and  _33
REMARK   15  A    between atoms: _36  and  _38
REMARK   16  A    between atoms: _38  and  _39
REMARK   17  A    between atoms: _38  and  _41
REMARK   18  A    between atoms: _41  and  _42
REMARK   19  A    between atoms: _45  and  _47
REMARK   20  A    between atoms: _47  and  _48
REMARK   21  A    between atoms: _47  and  _50
REMARK   22  A    between atoms: _50  and  _51
REMARK   23  A    between atoms: _54  and  _56
REMARK   24  A    between atoms: _56  and  _57
REMARK   25  A    between atoms: _59  and  _61
REMARK   26  A    between atoms: _61  and  _62
REMARK   27  A    between atoms: _65  and  _67
REMARK   28  A    between atoms: _67  and  _68
REMARK   29  A    between atoms: _67  and  _70
REMARK   30  A    between atoms: _70  and  _71
REMARK   31  A    between atoms: _74  and  _76
REMARK   32  A    between atoms: _76  and  _77
REMARK   33  A    between atoms: _76  and  _79
REMARK   34  A    between atoms: _79  and  _80
REMARK   35  A    between atoms: _83  and  _85
REMARK   36  A    between atoms: _85  and  _86
REMARK   37  A    between atoms: _85  and  _88
REMARK   38  A    between atoms: _88  and  _89
REMARK   39  A    between atoms: _92  and  _94
REMARK   40  A    between atoms: _94  and  _95
REMARK   41  A    between atoms: _94  and  _97
REMARK   42  A    between atoms: _100  and  _102
REMARK   43  A    between atoms: _102  and  _103
REMARK   44  A    between atoms: _102  and  _105
REMARK   45  A    between atoms: _105  and  _106
REMARK   46  A    between atoms: _106  and  _107
REMARK   47  A    between atoms: _107  and  _108
REMARK   48  A    between atoms: _108  and  _109
REMARK   49  A    between atoms: _113  and  _115
REMARK   50  A    between atoms: _115  and  _116
REMARK   51  A    between atoms: _115  and  _118
REMARK   52  A    between atoms: _118  and  _119
REMARK   53  A    between atoms: _119  and  _120
REMARK   54  A    between atoms: _122  and  _124
REMARK   55  A    between atoms: _124  and  _125
REMARK   56  A    between atoms: _124  and  _127
REMARK   57  A    between atoms: _127  and  _128
REMARK   58  A    between atoms: _131  and  _133
REMARK   59  A    between atoms: _133  and  _134
REMARK   60  A    between atoms: _136  and  _138
REMARK   61  A    between atoms: _138  and  _139
REMARK   62  A    between atoms: _141  and  _143
REMARK   63  A    between atoms: _143  and  _144
REMARK   64  A    between atoms: _143  and  _146
REMARK   65  A    between atoms: _146  and  _147
REMARK   66  A    between atoms: _150  and  _152
REMARK   67  A    between atoms: _152  and  _153
REMARK   68  A    between atoms: _155  and  _157
REMARK   69  A    between atoms: _157  and  _158
REMARK   70  A    between atoms: _160  and  _162
REMARK   71  A    between atoms: _162  and  _163
REMARK   72  A    between atoms: _162  and  _165
REMARK   73  A    between atoms: _165  and  _166
REMARK   74  A    between atoms: _172  and  _174
REMARK   75  A    between atoms: _174  and  _175
REMARK   76  A    between atoms: _174  and  _177
REMARK   77  A    between atoms: _177  and  _178
REMARK   78  A    between atoms: _181  and  _183
REMARK   79  A    between atoms: _183  and  _184
REMARK   80  A    between atoms: _183  and  _186
REMARK   81  A    between atoms: _189  and  _191
REMARK   82  A    between atoms: _191  and  _192
REMARK   83  A    between atoms: _191  and  _194
REMARK   84  A    between atoms: _194  and  _195
REMARK   85  A    between atoms: _198  and  _200
REMARK   86  A    between atoms: _200  and  _201
REMARK   87  A    between atoms: _200  and  _203
REMARK   88  A    between atoms: _203  and  _204
REMARK   89  A    between atoms: _208  and  _209
REMARK   90  A    between atoms: _214  and  _216
REMARK   91  A    between atoms: _216  and  _217
REMARK   92  A    between atoms: _216  and  _219
REMARK   93  A    between atoms: _222  and  _224
REMARK   94  A    between atoms: _224  and  _225
REMARK   95  A    between atoms: _224  and  _227
REMARK   96  A    between atoms: _227  and  _228
REMARK   97  A    between atoms: _233  and  _235
REMARK   98  A    between atoms: _235  and  _236
REMARK   99  A    between atoms: _235  and  _238
REMARK  100  A    between atoms: _238  and  _239
REMARK  101  A    between atoms: _242  and  _244
REMARK  102  A    between atoms: _244  and  _245
REMARK  103  A    between atoms: _247  and  _249
REMARK  104  A    between atoms: _249  and  _250
REMARK  105  A    between atoms: _249  and  _252
REMARK  106  A    between atoms: _252  and  _253
REMARK  107  A    between atoms: _253  and  _254
REMARK  108  A    between atoms: _254  and  _255
REMARK  109  A    between atoms: _264  and  _266
REMARK  110  A    between atoms: _266  and  _267
REMARK  111  A    between atoms: _266  and  _269
REMARK  112  A    between atoms: _269  and  _270
REMARK  113  A    between atoms: _275  and  _277
REMARK  114  A    between atoms: _277  and  _278
REMARK  115  A    between atoms: _277  and  _280
REMARK  116  A    between atoms: _280  and  _281
REMARK  117  A    between atoms: _281  and  _282
REMARK  118  A    between atoms: _282  and  _283
REMARK  119  A    between atoms: _292  and  _294
REMARK  120  A    between atoms: _294  and  _295
REMARK  121  A    between atoms: _294  and  _297
REMARK  122  A    between atoms: _297  and  _298
REMARK  123  A    between atoms: _301  and  _303
REMARK  124  A    between atoms: _303  and  _304
REMARK  125  A    between atoms: _303  and  _306
REMARK  126  A    between atoms: _306  and  _307
REMARK  127  A    between atoms: _310  and  _312
REMARK  128  A    between atoms: _312  and  _313
REMARK  129  A    between atoms: _312  and  _315
REMARK  130  A    between atoms: _315  and  _316
REMARK  131  A    between atoms: _319  and  _321
REMARK  132  A    between atoms: _321  and  _322
REMARK  133  A    between atoms: _321  and  _324
REMARK  134  A    between atoms: _324  and  _325
REMARK  135  A    between atoms: _328  and  _330
REMARK  136  A    between atoms: _330  and  _331
REMARK  137  A    between atoms: _333  and  _335
REMARK  138  A    between atoms: _335  and  _336
REMARK  139  A    between atoms: _339  and  _341
REMARK  140  A    between atoms: _341  and  _342
REMARK  141  A    between atoms: _341  and  _344
REMARK  142  A    between atoms: _344  and  _345
REMARK  143  A    between atoms: _348  and  _350
REMARK  144  A    between atoms: _350  and  _351
REMARK  145  A    between atoms: _350  and  _353
REMARK  146  A    between atoms: _353  and  _354
REMARK  147  A    between atoms: _357  and  _359
REMARK  148  A    between atoms: _359  and  _360
REMARK  149  A    between atoms: _359  and  _362
REMARK  150  A    between atoms: _362  and  _363
REMARK  151  A    between atoms: _366  and  _368
REMARK  152  A    between atoms: _368  and  _369
REMARK  153  A    between atoms: _368  and  _371
REMARK  154  A    between atoms: _374  and  _376
REMARK  155  A    between atoms: _376  and  _377
REMARK  156  A    between atoms: _376  and  _379
REMARK  157  A    between atoms: _379  and  _380
REMARK  158  A    between atoms: _380  and  _381
REMARK  159  A    between atoms: _381  and  _382
REMARK  160  A    between atoms: _382  and  _383
REMARK  161  A    between atoms: _387  and  _389
REMARK  162  A    between atoms: _389  and  _390
REMARK  163  A    between atoms: _389  and  _392
REMARK  164  A    between atoms: _392  and  _393
REMARK  165  A    between atoms: _393  and  _394
REMARK  166  A    between atoms: _396  and  _398
REMARK  167  A    between atoms: _398  and  _399
REMARK  168  A    between atoms: _398  and  _401
REMARK  169  A    between atoms: _401  and  _402
REMARK  170  A    between atoms: _405  and  _407
REMARK  171  A    between atoms: _407  and  _408
REMARK  172  A    between atoms: _410  and  _412
REMARK  173  A    between atoms: _412  and  _413
REMARK  174  A    between atoms: _415  and  _417
REMARK  175  A    between atoms: _417  and  _418
REMARK  176  A    between atoms: _417  and  _420
REMARK  177  A    between atoms: _420  and  _421
REMARK  178  A    between atoms: _424  and  _426
REMARK  179  A    between atoms: _426  and  _427
REMARK  180  A    between atoms: _429  and  _431
REMARK  181  A    between atoms: _431  and  _432
REMARK  182  A    between atoms: _434  and  _436
REMARK  183  A    between atoms: _436  and  _437
REMARK  184  A    between atoms: _436  and  _439
REMARK  185  A    between atoms: _439  and  _440
REMARK  186  A    between atoms: _446  and  _448
REMARK  187  A    between atoms: _448  and  _449
REMARK  188  A    between atoms: _448  and  _451
REMARK  189  A    between atoms: _451  and  _452
REMARK  190  A    between atoms: _455  and  _457
REMARK  191  A    between atoms: _457  and  _458
REMARK  192  A    between atoms: _457  and  _460
REMARK  193  A    between atoms: _463  and  _465
REMARK  194  A    between atoms: _465  and  _466
REMARK  195  A    between atoms: _465  and  _468
REMARK  196  A    between atoms: _468  and  _469
REMARK  197  A    between atoms: _473  and  _474
REMARK  198  A    between atoms: _479  and  _481
REMARK  199  A    between atoms: _481  and  _482
REMARK  200  A    between atoms: _481  and  _484
REMARK  201  A    between atoms: _484  and  _485
REMARK  202  A    between atoms: _489  and  _490
REMARK  203  A    between atoms: _495  and  _497
REMARK  204  A    between atoms: _497  and  _498
REMARK  205  A    between atoms: _497  and  _500
REMARK  206  A    between atoms: _503  and  _505
REMARK  207  A    between atoms: _505  and  _506
REMARK  208  A    between atoms: _505  and  _508
REMARK  209  A    between atoms: _508  and  _509
REMARK  210  A    between atoms: _514  and  _516
REMARK  211  A    between atoms: _516  and  _517
REMARK  212  A    between atoms: _516  and  _519
REMARK  213  A    between atoms: _519  and  _520
REMARK  214  A    between atoms: _523  and  _525
REMARK  215  A    between atoms: _525  and  _526
REMARK  216  A    between atoms: _525  and  _528
REMARK  217  A    between atoms: _528  and  _529
REMARK  218  A    between atoms: _532  and  _534
REMARK  219  A    between atoms: _534  and  _535
REMARK  220  A    between atoms: _537  and  _539
REMARK  221  A    between atoms: _539  and  _540
REMARK  222  A    between atoms: _539  and  _542
REMARK  223  A    between atoms: _542  and  _543
REMARK  224  A    between atoms: _543  and  _544
REMARK  225  A    between atoms: _544  and  _545
REMARK  226  A    between atoms: _554  and  _556
REMARK  227  A    between atoms: _556  and  _557
REMARK  228  A    between atoms: _556  and  _559
REMARK  229  A    between atoms: _559  and  _560
REMARK                            x       y       z     vdW  Elec       q    Type
REMARK                         _______ _______ _______ _____ _____    ______ ____
ROOT
ATOM      1  O   HOH     1      10.758  12.259  21.552  0.00  0.00    +0.000 OA
ENDROOT
TORSDOF 0
REMARK  Name = ../refined-set-2016/4kb9/4kb9_pocket.pdb
REMARK  229 active torsions:
REMARK  status: ('A' for Active; 'I' for Inactive)
REMARK    1  A    between atoms: _1  and  _3
REMARK    2  A    between atoms: _3  and  _4
REMARK    3  A    between atoms: _3  and  _6
REMARK    4  A    between atoms: _6  and  _7
REMARK    5  A    between atoms: _7  and  _8
REMARK    6  A    between atoms: _8  and  _9
REMARK    7  A    between atoms: _18  and  _20
REMARK    8  A    between atoms: _20  and  _21
REMARK    9  A    between atoms: _20  and  _23
REMARK   10  A    between atoms: _23  and  _24
REMARK   11  A    between atoms: _27  and  _29
REMARK   12  A    between atoms: _29  and  _30
REMARK   13  A    between atoms: _29  and  _32
REMARK   14  A    between atoms: _32  and  _33
REMARK   15  A    between atoms: _36  and  _38
REMARK   16  A    between atoms: _38  and  _39
REMARK   17  A    between atoms: _38  and  _41
REMARK   18  A    between atoms: _41  and  _42
REMARK   19  A    between atoms: _45  and  _47
REMARK   20  A    between atoms: _47  and  _48
REMARK   21  A    between atoms: _47  and  _50
REMARK   22  A    between atoms: _50  and  _51
REMARK   23  A    between atoms: _54  and  _56
REMARK   24  A    between atoms: _56  and  _57
REMARK   25  A    between atoms: _59  and  _61
REMARK   26  A    between atoms: _61  and  _62
REMARK   27  A    between atoms: _65  and  _67
REMARK   28  A    between atoms: _67  and  _68
REMARK   29  A    between atoms: _67  and  _70
REMARK   30  A    between atoms: _70  and  _71
REMARK   31  A    between atoms: _74  and  _76
REMARK   32  A    between atoms: _76  and  _77
REMARK   33  A    between atoms: _76  and  _79
REMARK   34  A    between atoms: _79  and  _80
REMARK   35  A    between atoms: _83  and  _85
REMARK   36  A    between atoms: _85  and  _86
REMARK   37  A    between atoms: _85  and  _88
REMARK   38  A    between atoms: _88  and  _89
REMARK   39  A    between atoms: _92  and  _94
REMARK   40  A    between atoms: _94  and  _95
REMARK   41  A    between atoms: _94  and  _97
REMARK   42  A    between atoms: _100  and  _102
REMARK   43  A    between atoms: _102  and  _103
REMARK   44  A    between atoms: _102  and  _105
REMARK   45  A    between atoms: _105  and  _106
REMARK   46  A    between atoms: _106  and  _107
REMARK   47  A    between atoms: _107  and  _108
REMARK   48  A    between atoms: _108  and  _109
REMARK   49  A    between atoms: _113  and  _115
REMARK   50  A    between atoms: _115  and  _116
REMARK   51  A    between atoms: _115  and  _118
REMARK   52  A    between atoms: _118  and  _119
REMARK   53  A    between atoms: _119  and  _120
REMARK   54  A    between atoms: _122  and  _124
REMARK   55  A    between atoms: _124  and  _125
REMARK   56  A    between atoms: _124  and  _127
REMARK   57  A    between atoms: _127  and  _128
REMARK   58  A    between atoms: _131  and  _133
REMARK   59  A    between atoms: _133  and  _134
REMARK   60  A    between atoms: _136  and  _138
REMARK   61  A    between atoms: _138  and  _139
REMARK   62  A    between atoms: _141  and  _143
REMARK   63  A    between atoms: _143  and  _144
REMARK   64  A    between atoms: _143  and  _146
REMARK   65  A    between atoms: _146  and  _147
REMARK   66  A    between atoms: _150  and  _152
REMARK   67  A    between atoms: _152  and  _153
REMARK   68  A    between atoms: _155  and  _157
REMARK   69  A    between atoms: _157  and  _158
REMARK   70  A    between atoms: _160  and  _162
REMARK   71  A    between atoms: _162  and  _163
REMARK   72  A    between atoms: _162  and  _165
REMARK   73  A    between atoms: _165  and  _166
REMARK   74  A    between atoms: _172  and  _174
REMARK   75  A    between atoms: _174  and  _175
REMARK   76  A    between atoms: _174  and  _177
REMARK   77  A    between atoms: _177  and  _178
REMARK   78  A    between atoms: _181  and  _183
REMARK   79  A    between atoms: _183  and  _184
REMARK   80  A    between atoms: _183  and  _186
REMARK   81  A    between atoms: _189  and  _191
REMARK   82  A    between atoms: _191  and  _192
REMARK   83  A    between atoms: _191  and  _194
REMARK   84  A    between atoms: _194  and  _195
REMARK   85  A    between atoms: _198  and  _200
REMARK   86  A    between atoms: _200  and  _201
REMARK   87  A    between atoms: _200  and  _203
REMARK   88  A    between atoms: _203  and  _204
REMARK   89  A    between atoms: _208  and  _209
REMARK   90  A    between atoms: _214  and  _216
REMARK   91  A    between atoms: _216  and  _217
REMARK   92  A    between atoms: _216  and  _219
REMARK   93  A    between atoms: _222  and  _224
REMARK   94  A    between atoms: _224  and  _225
REMARK   95  A    between atoms: _224  and  _227
REMARK   96  A    between atoms: _227  and  _228
REMARK   97  A    between atoms: _233  and  _235
REMARK   98  A    between atoms: _235  and  _236
REMARK   99  A    between atoms: _235  and  _238
REMARK  100  A    between atoms: _238  and  _239
REMARK  101  A    between atoms: _242  and  _244
REMARK  102  A    between atoms: _244  and  _245
REMARK  103  A    between atoms: _247  and  _249
REMARK  104  A    between atoms: _249  and  _250
REMARK  105  A    between atoms: _249  and  _252
REMARK  106  A    between atoms: _252  and  _253
REMARK  107  A    between atoms: _253  and  _254
REMARK  108  A    between atoms: _254  and  _255
REMARK  109  A    between atoms: _264  and  _266
REMARK  110  A    between atoms: _266  and  _267
REMARK  111  A    between atoms: _266  and  _269
REMARK  112  A    between atoms: _269  and  _270
REMARK  113  A    between atoms: _275  and  _277
REMARK  114  A    between atoms: _277  and  _278
REMARK  115  A    between atoms: _277  and  _280
REMARK  116  A    between atoms: _280  and  _281
REMARK  117  A    between atoms: _281  and  _282
REMARK  118  A    between atoms: _282  and  _283
REMARK  119  A    between atoms: _292  and  _294
REMARK  120  A    between atoms: _294  and  _295
REMARK  121  A    between atoms: _294  and  _297
REMARK  122  A    between atoms: _297  and  _298
REMARK  123  A    between atoms: _301  and  _303
REMARK  124  A    between atoms: _303  and  _304
REMARK  125  A    between atoms: _303  and  _306
REMARK  126  A    between atoms: _306  and  _307
REMARK  127  A    between atoms: _310  and  _312
REMARK  128  A    between atoms: _312  and  _313
REMARK  129  A    between atoms: _312  and  _315
REMARK  130  A    between atoms: _315  and  _316
REMARK  131  A    between atoms: _319  and  _321
REMARK  132  A    between atoms: _321  and  _322
REMARK  133  A    between atoms: _321  and  _324
REMARK  134  A    between atoms: _324  and  _325
REMARK  135  A    between atoms: _328  and  _330
REMARK  136  A    between atoms: _330  and  _331
REMARK  137  A    between atoms: _333  and  _335
REMARK  138  A    between atoms: _335  and  _336
REMARK  139  A    between atoms: _339  and  _341
REMARK  140  A    between atoms: _341  and  _342
REMARK  141  A    between atoms: _341  and  _344
REMARK  142  A    between atoms: _344  and  _345
REMARK  143  A    between atoms: _348  and  _350
REMARK  144  A    between atoms: _350  and  _351
REMARK  145  A    between atoms: _350  and  _353
REMARK  146  A    between atoms: _353  and  _354
REMARK  147  A    between atoms: _357  and  _359
REMARK  148  A    between atoms: _359  and  _360
REMARK  149  A    between atoms: _359  and  _362
REMARK  150  A    between atoms: _362  and  _363
REMARK  151  A    between atoms: _366  and  _368
REMARK  152  A    between atoms: _368  and  _369
REMARK  153  A    between atoms: _368  and  _371
REMARK  154  A    between atoms: _374  and  _376
REMARK  155  A    between atoms: _376  and  _377
REMARK  156  A    between atoms: _376  and  _379
REMARK  157  A    between atoms: _379  and  _380
REMARK  158  A    between atoms: _380  and  _381
REMARK  159  A    between atoms: _381  and  _382
REMARK  160  A    between atoms: _382  and  _383
REMARK  161  A    between atoms: _387  and  _389
REMARK  162  A    between atoms: _389  and  _390
REMARK  163  A    between atoms: _389  and  _392
REMARK  164  A    between atoms: _392  and  _393
REMARK  165  A    between atoms: _393  and  _394
REMARK  166  A    between atoms: _396  and  _398
REMARK  167  A    between atoms: _398  and  _399
REMARK  168  A    between atoms: _398  and  _401
REMARK  169  A    between atoms: _401  and  _402
REMARK  170  A    between atoms: _405  and  _407
REMARK  171  A    between atoms: _407  and  _408
REMARK  172  A    between atoms: _410  and  _412
REMARK  173  A    between atoms: _412  and  _413
REMARK  174  A    between atoms: _415  and  _417
REMARK  175  A    between atoms: _417  and  _418
REMARK  176  A    between atoms: _417  and  _420
REMARK  177  A    between atoms: _420  and  _421
REMARK  178  A    between atoms: _424  and  _426
REMARK  179  A    between atoms: _426  and  _427
REMARK  180  A    between atoms: _429  and  _431
REMARK  181  A    between atoms: _431  and  _432
REMARK  182  A    between atoms: _434  and  _436
REMARK  183  A    between atoms: _436  and  _437
REMARK  184  A    between atoms: _436  and  _439
REMARK  185  A    between atoms: _439  and  _440
REMARK  186  A    between atoms: _446  and  _448
REMARK  187  A    between atoms: _448  and  _449
REMARK  188  A    between atoms: _448  and  _451
REMARK  189  A    between atoms: _451  and  _452
REMARK  190  A    between atoms: _455  and  _457
REMARK  191  A    between atoms: _457  and  _458
REMARK  192  A    between atoms: _457  and  _460
REMARK  193  A    between atoms: _463  and  _465
REMARK  194  A    between atoms: _465  and  _466
REMARK  195  A    between atoms: _465  and  _468
REMARK  196  A    between atoms: _468  and  _469
REMARK  197  A    between atoms: _473  and  _474
REMARK  198  A    between atoms: _479  and  _481
REMARK  199  A    between atoms: _481  and  _482
REMARK  200  A    between atoms: _481  and  _484
REMARK  201  A    between atoms: _484  and  _485
REMARK  202  A    between atoms: _489  and  _490
REMARK  203  A    between atoms: _495  and  _497
REMARK  204  A    between atoms: _497  and  _498
REMARK  205  A    between atoms: _497  and  _500
REMARK  206  A    between atoms: _503  and  _505
REMARK  207  A    between atoms: _505  and  _506
REMARK  208  A    between atoms: _505  and  _508
REMARK  209  A    between atoms: _508  and  _509
REMARK  210  A    between atoms: _514  and  _516
REMARK  211  A    between atoms: _516  and  _517
REMARK  212  A    between atoms: _516  and  _519
REMARK  213  A    between atoms: _519  and  _520
REMARK  214  A    between atoms: _523  and  _525
REMARK  215  A    between atoms: _525  and  _526
REMARK  216  A    between atoms: _525  and  _528
REMARK  217  A    between atoms: _528  and  _529
REMARK  218  A    between atoms: _532  and  _534
REMARK  219  A    between atoms: _534  and  _535
REMARK  220  A    between atoms: _537  and  _539
REMARK  221  A    between atoms: _539  and  _540
REMARK  222  A    between atoms: _539  and  _542
REMARK  223  A    between atoms: _542  and  _543
REMARK  224  A    between atoms: _543  and  _544
REMARK  225  A    between atoms: _544  and  _545
REMARK  226  A    between atoms: _554  and  _556
REMARK  227  A    between atoms: _556  and  _557
REMARK  228  A    between atoms: _556  and  _559
REMARK  229  A    between atoms: _559  and  _560
REMARK                            x       y       z     vdW  Elec       q    Type
REMARK                         _______ _______ _______ _____ _____    ______ ____
ROOT
ATOM      1  O   HOH     1       8.414   9.343  10.629  0.00  0.00    +0.000 OA
ENDROOT
TORSDOF 0
REMARK  Name = ../refined-set-2016/4kb9/4kb9_pocket.pdb
REMARK  229 active torsions:
REMARK  status: ('A' for Active; 'I' for Inactive)
REMARK    1  A    between atoms: _1  and  _3
REMARK    2  A    between atoms: _3  and  _4
REMARK    3  A    between atoms: _3  and  _6
REMARK    4  A    between atoms: _6  and  _7
REMARK    5  A    between atoms: _7  and  _8
REMARK    6  A    between atoms: _8  and  _9
REMARK    7  A    between atoms: _18  and  _20
REMARK    8  A    between atoms: _20  and  _21
REMARK    9  A    between atoms: _20  and  _23
REMARK   10  A    between atoms: _23  and  _24
REMARK   11  A    between atoms: _27  and  _29
REMARK   12  A    between atoms: _29  and  _30
REMARK   13  A    between atoms: _29  and  _32
REMARK   14  A    between atoms: _32  and  _33
REMARK   15  A    between atoms: _36  and  _38
REMARK   16  A    between atoms: _38  and  _39
REMARK   17  A    between atoms: _38  and  _41
REMARK   18  A    between atoms: _41  and  _42
REMARK   19  A    between atoms: _45  and  _47
REMARK   20  A    between atoms: _47  and  _48
REMARK   21  A    between atoms: _47  and  _50
REMARK   22  A    between atoms: _50  and  _51
REMARK   23  A    between atoms: _54  and  _56
REMARK   24  A    between atoms: _56  and  _57
REMARK   25  A    between atoms: _59  and  _61
REMARK   26  A    between atoms: _61  and  _62
REMARK   27  A    between atoms: _65  and  _67
REMARK   28  A    between atoms: _67  and  _68
REMARK   29  A    between atoms: _67  and  _70
REMARK   30  A    between atoms: _70  and  _71
REMARK   31  A    between atoms: _74  and  _76
REMARK   32  A    between atoms: _76  and  _77
REMARK   33  A    between atoms: _76  and  _79
REMARK   34  A    between atoms: _79  and  _80
REMARK   35  A    between atoms: _83  and  _85
REMARK   36  A    between atoms: _85  and  _86
REMARK   37  A    between atoms: _85  and  _88
REMARK   38  A    between atoms: _88  and  _89
REMARK   39  A    between atoms: _92  and  _94
REMARK   40  A    between atoms: _94  and  _95
REMARK   41  A    between atoms: _94  and  _97
REMARK   42  A    between atoms: _100  and  _102
REMARK   43  A    between atoms: _102  and  _103
REMARK   44  A    between atoms: _102  and  _105
REMARK   45  A    between atoms: _105  and  _106
REMARK   46  A    between atoms: _106  and  _107
REMARK   47  A    between atoms: _107  and  _108
REMARK   48  A    between atoms: _108  and  _109
REMARK   49  A    between atoms: _113  and  _115
REMARK   50  A    between atoms: _115  and  _116
REMARK   51  A    between atoms: _115  and  _118
REMARK   52  A    between atoms: _118  and  _119
REMARK   53  A    between atoms: _119  and  _120
REMARK   54  A    between atoms: _122  and  _124
REMARK   55  A    between atoms: _124  and  _125
REMARK   56  A    between atoms: _124  and  _127
REMARK   57  A    between atoms: _127  and  _128
REMARK   58  A    between atoms: _131  and  _133
REMARK   59  A    between atoms: _133  and  _134
REMARK   60  A    between atoms: _136  and  _138
REMARK   61  A    between atoms: _138  and  _139
REMARK   62  A    between atoms: _141  and  _143
REMARK   63  A    between atoms: _143  and  _144
REMARK   64  A    between atoms: _143  and  _146
REMARK   65  A    between atoms: _146  and  _147
REMARK   66  A    between atoms: _150  and  _152
REMARK   67  A    between atoms: _152  and  _153
REMARK   68  A    between atoms: _155  and  _157
REMARK   69  A    between atoms: _157  and  _158
REMARK   70  A    between atoms: _160  and  _162
REMARK   71  A    between atoms: _162  and  _163
REMARK   72  A    between atoms: _162  and  _165
REMARK   73  A    between atoms: _165  and  _166
REMARK   74  A    between atoms: _172  and  _174
REMARK   75  A    between atoms: _174  and  _175
REMARK   76  A    between atoms: _174  and  _177
REMARK   77  A    between atoms: _177  and  _178
REMARK   78  A    between atoms: _181  and  _183
REMARK   79  A    between atoms: _183  and  _184
REMARK   80  A    between atoms: _183  and  _186
REMARK   81  A    between atoms: _189  and  _191
REMARK   82  A    between atoms: _191  and  _192
REMARK   83  A    between atoms: _191  and  _194
REMARK   84  A    between atoms: _194  and  _195
REMARK   85  A    between atoms: _198  and  _200
REMARK   86  A    between atoms: _200  and  _201
REMARK   87  A    between atoms: _200  and  _203
REMARK   88  A    between atoms: _203  and  _204
REMARK   89  A    between atoms: _208  and  _209
REMARK   90  A    between atoms: _214  and  _216
REMARK   91  A    between atoms: _216  and  _217
REMARK   92  A    between atoms: _216  and  _219
REMARK   93  A    between atoms: _222  and  _224
REMARK   94  A    between atoms: _224  and  _225
REMARK   95  A    between atoms: _224  and  _227
REMARK   96  A    between atoms: _227  and  _228
REMARK   97  A    between atoms: _233  and  _235
REMARK   98  A    between atoms: _235  and  _236
REMARK   99  A    between atoms: _235  and  _238
REMARK  100  A    between atoms: _238  and  _239
REMARK  101  A    between atoms: _242  and  _244
REMARK  102  A    between atoms: _244  and  _245
REMARK  103  A    between atoms: _247  and  _249
REMARK  104  A    between atoms: _249  and  _250
REMARK  105  A    between atoms: _249  and  _252
REMARK  106  A    between atoms: _252  and  _253
REMARK  107  A    between atoms: _253  and  _254
REMARK  108  A    between atoms: _254  and  _255
REMARK  109  A    between atoms: _264  and  _266
REMARK  110  A    between atoms: _266  and  _267
REMARK  111  A    between atoms: _266  and  _269
REMARK  112  A    between atoms: _269  and  _270
REMARK  113  A    between atoms: _275  and  _277
REMARK  114  A    between atoms: _277  and  _278
REMARK  115  A    between atoms: _277  and  _280
REMARK  116  A    between atoms: _280  and  _281
REMARK  117  A    between atoms: _281  and  _282
REMARK  118  A    between atoms: _282  and  _283
REMARK  119  A    between atoms: _292  and  _294
REMARK  120  A    between atoms: _294  and  _295
REMARK  121  A    between atoms: _294  and  _297
REMARK  122  A    between atoms: _297  and  _298
REMARK  123  A    between atoms: _301  and  _303
REMARK  124  A    between atoms: _303  and  _304
REMARK  125  A    between atoms: _303  and  _306
REMARK  126  A    between atoms: _306  and  _307
REMARK  127  A    between atoms: _310  and  _312
REMARK  128  A    between atoms: _312  and  _313
REMARK  129  A    between atoms: _312  and  _315
REMARK  130  A    between atoms: _315  and  _316
REMARK  131  A    between atoms: _319  and  _321
REMARK  132  A    between atoms: _321  and  _322
REMARK  133  A    between atoms: _321  and  _324
REMARK  134  A    between atoms: _324  and  _325
REMARK  135  A    between atoms: _328  and  _330
REMARK  136  A    between atoms: _330  and  _331
REMARK  137  A    between atoms: _333  and  _335
REMARK  138  A    between atoms: _335  and  _336
REMARK  139  A    between atoms: _339  and  _341
REMARK  140  A    between atoms: _341  and  _342
REMARK  141  A    between atoms: _341  and  _344
REMARK  142  A    between atoms: _344  and  _345
REMARK  143  A    between atoms: _348  and  _350
REMARK  144  A    between atoms: _350  and  _351
REMARK  145  A    between atoms: _350  and  _353
REMARK  146  A    between atoms: _353  and  _354
REMARK  147  A    between atoms: _357  and  _359
REMARK  148  A    between atoms: _359  and  _360
REMARK  149  A    between atoms: _359  and  _362
REMARK  150  A    between atoms: _362  and  _363
REMARK  151  A    between atoms: _366  and  _368
REMARK  152  A    between atoms: _368  and  _369
REMARK  153  A    between atoms: _368  and  _371
REMARK  154  A    between atoms: _374  and  _376
REMARK  155  A    between atoms: _376  and  _377
REMARK  156  A    between atoms: _376  and  _379
REMARK  157  A    between atoms: _379  and  _380
REMARK  158  A    between atoms: _380  and  _381
REMARK  159  A    between atoms: _381  and  _382
REMARK  160  A    between atoms: _382  and  _383
REMARK  161  A    between atoms: _387  and  _389
REMARK  162  A    between atoms: _389  and  _390
REMARK  163  A    between atoms: _389  and  _392
REMARK  164  A    between atoms: _392  and  _393
REMARK  165  A    between atoms: _393  and  _394
REMARK  166  A    between atoms: _396  and  _398
REMARK  167  A    between atoms: _398  and  _399
REMARK  168  A    between atoms: _398  and  _401
REMARK  169  A    between atoms: _401  and  _402
REMARK  170  A    between atoms: _405  and  _407
REMARK  171  A    between atoms: _407  and  _408
REMARK  172  A    between atoms: _410  and  _412
REMARK  173  A    between atoms: _412  and  _413
REMARK  174  A    between atoms: _415  and  _417
REMARK  175  A    between atoms: _417  and  _418
REMARK  176  A    between atoms: _417  and  _420
REMARK  177  A    between atoms: _420  and  _421
REMARK  178  A    between atoms: _424  and  _426
REMARK  179  A    between atoms: _426  and  _427
REMARK  180  A    between atoms: _429  and  _431
REMARK  181  A    between atoms: _431  and  _432
REMARK  182  A    between atoms: _434  and  _436
REMARK  183  A    between atoms: _436  and  _437
REMARK  184  A    between atoms: _436  and  _439
REMARK  185  A    between atoms: _439  and  _440
REMARK  186  A    between atoms: _446  and  _448
REMARK  187  A    between atoms: _448  and  _449
REMARK  188  A    between atoms: _448  and  _451
REMARK  189  A    between atoms: _451  and  _452
REMARK  190  A    between atoms: _455  and  _457
REMARK  191  A    between atoms: _457  and  _458
REMARK  192  A    between atoms: _457  and  _460
REMARK  193  A    between atoms: _463  and  _465
REMARK  194  A    between atoms: _465  and  _466
REMARK  195  A    between atoms: _465  and  _468
REMARK  196  A    between atoms: _468  and  _469
REMARK  197  A    between atoms: _473  and  _474
REMARK  198  A    between atoms: _479  and  _481
REMARK  199  A    between atoms: _481  and  _482
REMARK  200  A    between atoms: _481  and  _484
REMARK  201  A    between atoms: _484  and  _485
REMARK  202  A    between atoms: _489  and  _490
REMARK  203  A    between atoms: _495  and  _497
REMARK  204  A    between atoms: _497  and  _498
REMARK  205  A    between atoms: _497  and  _500
REMARK  206  A    between atoms: _503  and  _505
REMARK  207  A    between atoms: _505  and  _506
REMARK  208  A    between atoms: _505  and  _508
REMARK  209  A    between atoms: _508  and  _509
REMARK  210  A    between atoms: _514  and  _516
REMARK  211  A    between atoms: _516  and  _517
REMARK  212  A    between atoms: _516  and  _519
REMARK  213  A    between atoms: _519  and  _520
REMARK  214  A    between atoms: _523  and  _525
REMARK  215  A    between atoms: _525  and  _526
REMARK  216  A    between atoms: _525  and  _528
REMARK  217  A    between atoms: _528  and  _529
REMARK  218  A    between atoms: _532  and  _534
REMARK  219  A    between atoms: _534  and  _535
REMARK  220  A    between atoms: _537  and  _539
REMARK  221  A    between atoms: _539  and  _540
REMARK  222  A    between atoms: _539  and  _542
REMARK  223  A    between atoms: _542  and  _543
REMARK  224  A    between atoms: _543  and  _544
REMARK  225  A    between atoms: _544  and  _545
REMARK  226  A    between atoms: _554  and  _556
REMARK  227  A    between atoms: _556  and  _557
REMARK  228  A    between atoms: _556  and  _559
REMARK  229  A    between atoms: _559  and  _560
REMARK                            x       y       z     vdW  Elec       q    Type
REMARK                         _______ _______ _______ _____ _____    ______ ____
ROOT
ATOM      1  O   HOH     1       3.386  16.905  15.866  0.00  0.00    +0.000 OA
ENDROOT
TORSDOF 0
REMARK  Name = ../refined-set-2016/4kb9/4kb9_pocket.pdb
REMARK  229 active torsions:
REMARK  status: ('A' for Active; 'I' for Inactive)
REMARK    1  A    between atoms: _1  and  _3
REMARK    2  A    between atoms: _3  and  _4
REMARK    3  A    between atoms: _3  and  _6
REMARK    4  A    between atoms: _6  and  _7
REMARK    5  A    between atoms: _7  and  _8
REMARK    6  A    between atoms: _8  and  _9
REMARK    7  A    between atoms: _18  and  _20
REMARK    8  A    between atoms: _20  and  _21
REMARK    9  A    between atoms: _20  and  _23
REMARK   10  A    between atoms: _23  and  _24
REMARK   11  A    between atoms: _27  and  _29
REMARK   12  A    between atoms: _29  and  _30
REMARK   13  A    between atoms: _29  and  _32
REMARK   14  A    between atoms: _32  and  _33
REMARK   15  A    between atoms: _36  and  _38
REMARK   16  A    between atoms: _38  and  _39
REMARK   17  A    between atoms: _38  and  _41
REMARK   18  A    between atoms: _41  and  _42
REMARK   19  A    between atoms: _45  and  _47
REMARK   20  A    between atoms: _47  and  _48
REMARK   21  A    between atoms: _47  and  _50
REMARK   22  A    between atoms: _50  and  _51
REMARK   23  A    between atoms: _54  and  _56
REMARK   24  A    between atoms: _56  and  _57
REMARK   25  A    between atoms: _59  and  _61
REMARK   26  A    between atoms: _61  and  _62
REMARK   27  A    between atoms: _65  and  _67
REMARK   28  A    between atoms: _67  and  _68
REMARK   29  A    between atoms: _67  and  _70
REMARK   30  A    between atoms: _70  and  _71
REMARK   31  A    between atoms: _74  and  _76
REMARK   32  A    between atoms: _76  and  _77
REMARK   33  A    between atoms: _76  and  _79
REMARK   34  A    between atoms: _79  and  _80
REMARK   35  A    between atoms: _83  and  _85
REMARK   36  A    between atoms: _85  and  _86
REMARK   37  A    between atoms: _85  and  _88
REMARK   38  A    between atoms: _88  and  _89
REMARK   39  A    between atoms: _92  and  _94
REMARK   40  A    between atoms: _94  and  _95
REMARK   41  A    between atoms: _94  and  _97
REMARK   42  A    between atoms: _100  and  _102
REMARK   43  A    between atoms: _102  and  _103
REMARK   44  A    between atoms: _102  and  _105
REMARK   45  A    between atoms: _105  and  _106
REMARK   46  A    between atoms: _106  and  _107
REMARK   47  A    between atoms: _107  and  _108
REMARK   48  A    between atoms: _108  and  _109
REMARK   49  A    between atoms: _113  and  _115
REMARK   50  A    between atoms: _115  and  _116
REMARK   51  A    between atoms: _115  and  _118
REMARK   52  A    between atoms: _118  and  _119
REMARK   53  A    between atoms: _119  and  _120
REMARK   54  A    between atoms: _122  and  _124
REMARK   55  A    between atoms: _124  and  _125
REMARK   56  A    between atoms: _124  and  _127
REMARK   57  A    between atoms: _127  and  _128
REMARK   58  A    between atoms: _131  and  _133
REMARK   59  A    between atoms: _133  and  _134
REMARK   60  A    between atoms: _136  and  _138
REMARK   61  A    between atoms: _138  and  _139
REMARK   62  A    between atoms: _141  and  _143
REMARK   63  A    between atoms: _143  and  _144
REMARK   64  A    between atoms: _143  and  _146
REMARK   65  A    between atoms: _146  and  _147
REMARK   66  A    between atoms: _150  and  _152
REMARK   67  A    between atoms: _152  and  _153
REMARK   68  A    between atoms: _155  and  _157
REMARK   69  A    between atoms: _157  and  _158
REMARK   70  A    between atoms: _160  and  _162
REMARK   71  A    between atoms: _162  and  _163
REMARK   72  A    between atoms: _162  and  _165
REMARK   73  A    between atoms: _165  and  _166
REMARK   74  A    between atoms: _172  and  _174
REMARK   75  A    between atoms: _174  and  _175
REMARK   76  A    between atoms: _174  and  _177
REMARK   77  A    between atoms: _177  and  _178
REMARK   78  A    between atoms: _181  and  _183
REMARK   79  A    between atoms: _183  and  _184
REMARK   80  A    between atoms: _183  and  _186
REMARK   81  A    between atoms: _189  and  _191
REMARK   82  A    between atoms: _191  and  _192
REMARK   83  A    between atoms: _191  and  _194
REMARK   84  A    between atoms: _194  and  _195
REMARK   85  A    between atoms: _198  and  _200
REMARK   86  A    between atoms: _200  and  _201
REMARK   87  A    between atoms: _200  and  _203
REMARK   88  A    between atoms: _203  and  _204
REMARK   89  A    between atoms: _208  and  _209
REMARK   90  A    between atoms: _214  and  _216
REMARK   91  A    between atoms: _216  and  _217
REMARK   92  A    between atoms: _216  and  _219
REMARK   93  A    between atoms: _222  and  _224
REMARK   94  A    between atoms: _224  and  _225
REMARK   95  A    between atoms: _224  and  _227
REMARK   96  A    between atoms: _227  and  _228
REMARK   97  A    between atoms: _233  and  _235
REMARK   98  A    between atoms: _235  and  _236
REMARK   99  A    between atoms: _235  and  _238
REMARK  100  A    between atoms: _238  and  _239
REMARK  101  A    between atoms: _242  and  _244
REMARK  102  A    between atoms: _244  and  _245
REMARK  103  A    between atoms: _247  and  _249
REMARK  104  A    between atoms: _249  and  _250
REMARK  105  A    between atoms: _249  and  _252
REMARK  106  A    between atoms: _252  and  _253
REMARK  107  A    between atoms: _253  and  _254
REMARK  108  A    between atoms: _254  and  _255
REMARK  109  A    between atoms: _264  and  _266
REMARK  110  A    between atoms: _266  and  _267
REMARK  111  A    between atoms: _266  and  _269
REMARK  112  A    between atoms: _269  and  _270
REMARK  113  A    between atoms: _275  and  _277
REMARK  114  A    between atoms: _277  and  _278
REMARK  115  A    between atoms: _277  and  _280
REMARK  116  A    between atoms: _280  and  _281
REMARK  117  A    between atoms: _281  and  _282
REMARK  118  A    between atoms: _282  and  _283
REMARK  119  A    between atoms: _292  and  _294
REMARK  120  A    between atoms: _294  and  _295
REMARK  121  A    between atoms: _294  and  _297
REMARK  122  A    between atoms: _297  and  _298
REMARK  123  A    between atoms: _301  and  _303
REMARK  124  A    between atoms: _303  and  _304
REMARK  125  A    between atoms: _303  and  _306
REMARK  126  A    between atoms: _306  and  _307
REMARK  127  A    between atoms: _310  and  _312
REMARK  128  A    between atoms: _312  and  _313
REMARK  129  A    between atoms: _312  and  _315
REMARK  130  A    between atoms: _315  and  _316
REMARK  131  A    between atoms: _319  and  _321
REMARK  132  A    between atoms: _321  and  _322
REMARK  133  A    between atoms: _321  and  _324
REMARK  134  A    between atoms: _324  and  _325
REMARK  135  A    between atoms: _328  and  _330
REMARK  136  A    between atoms: _330  and  _331
REMARK  137  A    between atoms: _333  and  _335
REMARK  138  A    between atoms: _335  and  _336
REMARK  139  A    between atoms: _339  and  _341
REMARK  140  A    between atoms: _341  and  _342
REMARK  141  A    between atoms: _341  and  _344
REMARK  142  A    between atoms: _344  and  _345
REMARK  143  A    between atoms: _348  and  _350
REMARK  144  A    between atoms: _350  and  _351
REMARK  145  A    between atoms: _350  and  _353
REMARK  146  A    between atoms: _353  and  _354
REMARK  147  A    between atoms: _357  and  _359
REMARK  148  A    between atoms: _359  and  _360
REMARK  149  A    between atoms: _359  and  _362
REMARK  150  A    between atoms: _362  and  _363
REMARK  151  A    between atoms: _366  and  _368
REMARK  152  A    between atoms: _368  and  _369
REMARK  153  A    between atoms: _368  and  _371
REMARK  154  A    between atoms: _374  and  _376
REMARK  155  A    between atoms: _376  and  _377
REMARK  156  A    between atoms: _376  and  _379
REMARK  157  A    between atoms: _379  and  _380
REMARK  158  A    between atoms: _380  and  _381
REMARK  159  A    between atoms: _381  and  _382
REMARK  160  A    between atoms: _382  and  _383
REMARK  161  A    between atoms: _387  and  _389
REMARK  162  A    between atoms: _389  and  _390
REMARK  163  A    between atoms: _389  and  _392
REMARK  164  A    between atoms: _392  and  _393
REMARK  165  A    between atoms: _393  and  _394
REMARK  166  A    between atoms: _396  and  _398
REMARK  167  A    between atoms: _398  and  _399
REMARK  168  A    between atoms: _398  and  _401
REMARK  169  A    between atoms: _401  and  _402
REMARK  170  A    between atoms: _405  and  _407
REMARK  171  A    between atoms: _407  and  _408
REMARK  172  A    between atoms: _410  and  _412
REMARK  173  A    between atoms: _412  and  _413
REMARK  174  A    between atoms: _415  and  _417
REMARK  175  A    between atoms: _417  and  _418
REMARK  176  A    between atoms: _417  and  _420
REMARK  177  A    between atoms: _420  and  _421
REMARK  178  A    between atoms: _424  and  _426
REMARK  179  A    between atoms: _426  and  _427
REMARK  180  A    between atoms: _429  and  _431
REMARK  181  A    between atoms: _431  and  _432
REMARK  182  A    between atoms: _434  and  _436
REMARK  183  A    between atoms: _436  and  _437
REMARK  184  A    between atoms: _436  and  _439
REMARK  185  A    between atoms: _439  and  _440
REMARK  186  A    between atoms: _446  and  _448
REMARK  187  A    between atoms: _448  and  _449
REMARK  188  A    between atoms: _448  and  _451
REMARK  189  A    between atoms: _451  and  _452
REMARK  190  A    between atoms: _455  and  _457
REMARK  191  A    between atoms: _457  and  _458
REMARK  192  A    between atoms: _457  and  _460
REMARK  193  A    between atoms: _463  and  _465
REMARK  194  A    between atoms: _465  and  _466
REMARK  195  A    between atoms: _465  and  _468
REMARK  196  A    between atoms: _468  and  _469
REMARK  197  A    between atoms: _473  and  _474
REMARK  198  A    between atoms: _479  and  _481
REMARK  199  A    between atoms: _481  and  _482
REMARK  200  A    between atoms: _481  and  _484
REMARK  201  A    between atoms: _484  and  _485
REMARK  202  A    between atoms: _489  and  _490
REMARK  203  A    between atoms: _495  and  _497
REMARK  204  A    between atoms: _497  and  _498
REMARK  205  A    between atoms: _497  and  _500
REMARK  206  A    between atoms: _503  and  _505
REMARK  207  A    between atoms: _505  and  _506
REMARK  208  A    between atoms: _505  and  _508
REMARK  209  A    between atoms: _508  and  _509
REMARK  210  A    between atoms: _514  and  _516
REMARK  211  A    between atoms: _516  and  _517
REMARK  212  A    between atoms: _516  and  _519
REMARK  213  A    between atoms: _519  and  _520
REMARK  214  A    between atoms: _523  and  _525
REMARK  215  A    between atoms: _525  and  _526
REMARK  216  A    between atoms: _525  and  _528
REMARK  217  A    between atoms: _528  and  _529
REMARK  218  A    between atoms: _532  and  _534
REMARK  219  A    between atoms: _534  and  _535
REMARK  220  A    between atoms: _537  and  _539
REMARK  221  A    between atoms: _539  and  _540
REMARK  222  A    between atoms: _539  and  _542
REMARK  223  A    between atoms: _542  and  _543
REMARK  224  A    between atoms: _543  and  _544
REMARK  225  A    between atoms: _544  and  _545
REMARK  226  A    between atoms: _554  and  _556
REMARK  227  A    between atoms: _556  and  _557
REMARK  228  A    between atoms: _556  and  _559
REMARK  229  A    between atoms: _559  and  _560
REMARK                            x       y       z     vdW  Elec       q    Type
REMARK                         _______ _______ _______ _____ _____    ______ ____
ROOT
ATOM      1  O   HOH     1      20.139  18.574   7.470  0.00  0.00    +0.000 OA
ENDROOT
TORSDOF 0
REMARK  Name = ../refined-set-2016/4kb9/4kb9_pocket.pdb
REMARK  229 active torsions:
REMARK  status: ('A' for Active; 'I' for Inactive)
REMARK    1  A    between atoms: _1  and  _3
REMARK    2  A    between atoms: _3  and  _4
REMARK    3  A    between atoms: _3  and  _6
REMARK    4  A    between atoms: _6  and  _7
REMARK    5  A    between atoms: _7  and  _8
REMARK    6  A    between atoms: _8  and  _9
REMARK    7  A    between atoms: _18  and  _20
REMARK    8  A    between atoms: _20  and  _21
REMARK    9  A    between atoms: _20  and  _23
REMARK   10  A    between atoms: _23  and  _24
REMARK   11  A    between atoms: _27  and  _29
REMARK   12  A    between atoms: _29  and  _30
REMARK   13  A    between atoms: _29  and  _32
REMARK   14  A    between atoms: _32  and  _33
REMARK   15  A    between atoms: _36  and  _38
REMARK   16  A    between atoms: _38  and  _39
REMARK   17  A    between atoms: _38  and  _41
REMARK   18  A    between atoms: _41  and  _42
REMARK   19  A    between atoms: _45  and  _47
REMARK   20  A    between atoms: _47  and  _48
REMARK   21  A    between atoms: _47  and  _50
REMARK   22  A    between atoms: _50  and  _51
REMARK   23  A    between atoms: _54  and  _56
REMARK   24  A    between atoms: _56  and  _57
REMARK   25  A    between atoms: _59  and  _61
REMARK   26  A    between atoms: _61  and  _62
REMARK   27  A    between atoms: _65  and  _67
REMARK   28  A    between atoms: _67  and  _68
REMARK   29  A    between atoms: _67  and  _70
REMARK   30  A    between atoms: _70  and  _71
REMARK   31  A    between atoms: _74  and  _76
REMARK   32  A    between atoms: _76  and  _77
REMARK   33  A    between atoms: _76  and  _79
REMARK   34  A    between atoms: _79  and  _80
REMARK   35  A    between atoms: _83  and  _85
REMARK   36  A    between atoms: _85  and  _86
REMARK   37  A    between atoms: _85  and  _88
REMARK   38  A    between atoms: _88  and  _89
REMARK   39  A    between atoms: _92  and  _94
REMARK   40  A    between atoms: _94  and  _95
REMARK   41  A    between atoms: _94  and  _97
REMARK   42  A    between atoms: _100  and  _102
REMARK   43  A    between atoms: _102  and  _103
REMARK   44  A    between atoms: _102  and  _105
REMARK   45  A    between atoms: _105  and  _106
REMARK   46  A    between atoms: _106  and  _107
REMARK   47  A    between atoms: _107  and  _108
REMARK   48  A    between atoms: _108  and  _109
REMARK   49  A    between atoms: _113  and  _115
REMARK   50  A    between atoms: _115  and  _116
REMARK   51  A    between atoms: _115  and  _118
REMARK   52  A    between atoms: _118  and  _119
REMARK   53  A    between atoms: _119  and  _120
REMARK   54  A    between atoms: _122  and  _124
REMARK   55  A    between atoms: _124  and  _125
REMARK   56  A    between atoms: _124  and  _127
REMARK   57  A    between atoms: _127  and  _128
REMARK   58  A    between atoms: _131  and  _133
REMARK   59  A    between atoms: _133  and  _134
REMARK   60  A    between atoms: _136  and  _138
REMARK   61  A    between atoms: _138  and  _139
REMARK   62  A    between atoms: _141  and  _143
REMARK   63  A    between atoms: _143  and  _144
REMARK   64  A    between atoms: _143  and  _146
REMARK   65  A    between atoms: _146  and  _147
REMARK   66  A    between atoms: _150  and  _152
REMARK   67  A    between atoms: _152  and  _153
REMARK   68  A    between atoms: _155  and  _157
REMARK   69  A    between atoms: _157  and  _158
REMARK   70  A    between atoms: _160  and  _162
REMARK   71  A    between atoms: _162  and  _163
REMARK   72  A    between atoms: _162  and  _165
REMARK   73  A    between atoms: _165  and  _166
REMARK   74  A    between atoms: _172  and  _174
REMARK   75  A    between atoms: _174  and  _175
REMARK   76  A    between atoms: _174  and  _177
REMARK   77  A    between atoms: _177  and  _178
REMARK   78  A    between atoms: _181  and  _183
REMARK   79  A    between atoms: _183  and  _184
REMARK   80  A    between atoms: _183  and  _186
REMARK   81  A    between atoms: _189  and  _191
REMARK   82  A    between atoms: _191  and  _192
REMARK   83  A    between atoms: _191  and  _194
REMARK   84  A    between atoms: _194  and  _195
REMARK   85  A    between atoms: _198  and  _200
REMARK   86  A    between atoms: _200  and  _201
REMARK   87  A    between atoms: _200  and  _203
REMARK   88  A    between atoms: _203  and  _204
REMARK   89  A    between atoms: _208  and  _209
REMARK   90  A    between atoms: _214  and  _216
REMARK   91  A    between atoms: _216  and  _217
REMARK   92  A    between atoms: _216  and  _219
REMARK   93  A    between atoms: _222  and  _224
REMARK   94  A    between atoms: _224  and  _225
REMARK   95  A    between atoms: _224  and  _227
REMARK   96  A    between atoms: _227  and  _228
REMARK   97  A    between atoms: _233  and  _235
REMARK   98  A    between atoms: _235  and  _236
REMARK   99  A    between atoms: _235  and  _238
REMARK  100  A    between atoms: _238  and  _239
REMARK  101  A    between atoms: _242  and  _244
REMARK  102  A    between atoms: _244  and  _245
REMARK  103  A    between atoms: _247  and  _249
REMARK  104  A    between atoms: _249  and  _250
REMARK  105  A    between atoms: _249  and  _252
REMARK  106  A    between atoms: _252  and  _253
REMARK  107  A    between atoms: _253  and  _254
REMARK  108  A    between atoms: _254  and  _255
REMARK  109  A    between atoms: _264  and  _266
REMARK  110  A    between atoms: _266  and  _267
REMARK  111  A    between atoms: _266  and  _269
REMARK  112  A    between atoms: _269  and  _270
REMARK  113  A    between atoms: _275  and  _277
REMARK  114  A    between atoms: _277  and  _278
REMARK  115  A    between atoms: _277  and  _280
REMARK  116  A    between atoms: _280  and  _281
REMARK  117  A    between atoms: _281  and  _282
REMARK  118  A    between atoms: _282  and  _283
REMARK  119  A    between atoms: _292  and  _294
REMARK  120  A    between atoms: _294  and  _295
REMARK  121  A    between atoms: _294  and  _297
REMARK  122  A    between atoms: _297  and  _298
REMARK  123  A    between atoms: _301  and  _303
REMARK  124  A    between atoms: _303  and  _304
REMARK  125  A    between atoms: _303  and  _306
REMARK  126  A    between atoms: _306  and  _307
REMARK  127  A    between atoms: _310  and  _312
REMARK  128  A    between atoms: _312  and  _313
REMARK  129  A    between atoms: _312  and  _315
REMARK  130  A    between atoms: _315  and  _316
REMARK  131  A    between atoms: _319  and  _321
REMARK  132  A    between atoms: _321  and  _322
REMARK  133  A    between atoms: _321  and  _324
REMARK  134  A    between atoms: _324  and  _325
REMARK  135  A    between atoms: _328  and  _330
REMARK  136  A    between atoms: _330  and  _331
REMARK  137  A    between atoms: _333  and  _335
REMARK  138  A    between atoms: _335  and  _336
REMARK  139  A    between atoms: _339  and  _341
REMARK  140  A    between atoms: _341  and  _342
REMARK  141  A    between atoms: _341  and  _344
REMARK  142  A    between atoms: _344  and  _345
REMARK  143  A    between atoms: _348  and  _350
REMARK  144  A    between atoms: _350  and  _351
REMARK  145  A    between atoms: _350  and  _353
REMARK  146  A    between atoms: _353  and  _354
REMARK  147  A    between atoms: _357  and  _359
REMARK  148  A    between atoms: _359  and  _360
REMARK  149  A    between atoms: _359  and  _362
REMARK  150  A    between atoms: _362  and  _363
REMARK  151  A    between atoms: _366  and  _368
REMARK  152  A    between atoms: _368  and  _369
REMARK  153  A    between atoms: _368  and  _371
REMARK  154  A    between atoms: _374  and  _376
REMARK  155  A    between atoms: _376  and  _377
REMARK  156  A    between atoms: _376  and  _379
REMARK  157  A    between atoms: _379  and  _380
REMARK  158  A    between atoms: _380  and  _381
REMARK  159  A    between atoms: _381  and  _382
REMARK  160  A    between atoms: _382  and  _383
REMARK  161  A    between atoms: _387  and  _389
REMARK  162  A    between atoms: _389  and  _390
REMARK  163  A    between atoms: _389  and  _392
REMARK  164  A    between atoms: _392  and  _393
REMARK  165  A    between atoms: _393  and  _394
REMARK  166  A    between atoms: _396  and  _398
REMARK  167  A    between atoms: _398  and  _399
REMARK  168  A    between atoms: _398  and  _401
REMARK  169  A    between atoms: _401  and  _402
REMARK  170  A    between atoms: _405  and  _407
REMARK  171  A    between atoms: _407  and  _408
REMARK  172  A    between atoms: _410  and  _412
REMARK  173  A    between atoms: _412  and  _413
REMARK  174  A    between atoms: _415  and  _417
REMARK  175  A    between atoms: _417  and  _418
REMARK  176  A    between atoms: _417  and  _420
REMARK  177  A    between atoms: _420  and  _421
REMARK  178  A    between atoms: _424  and  _426
REMARK  179  A    between atoms: _426  and  _427
REMARK  180  A    between atoms: _429  and  _431
REMARK  181  A    between atoms: _431  and  _432
REMARK  182  A    between atoms: _434  and  _436
REMARK  183  A    between atoms: _436  and  _437
REMARK  184  A    between atoms: _436  and  _439
REMARK  185  A    between atoms: _439  and  _440
REMARK  186  A    between atoms: _446  and  _448
REMARK  187  A    between atoms: _448  and  _449
REMARK  188  A    between atoms: _448  and  _451
REMARK  189  A    between atoms: _451  and  _452
REMARK  190  A    between atoms: _455  and  _457
REMARK  191  A    between atoms: _457  and  _458
REMARK  192  A    between atoms: _457  and  _460
REMARK  193  A    between atoms: _463  and  _465
REMARK  194  A    between atoms: _465  and  _466
REMARK  195  A    between atoms: _465  and  _468
REMARK  196  A    between atoms: _468  and  _469
REMARK  197  A    between atoms: _473  and  _474
REMARK  198  A    between atoms: _479  and  _481
REMARK  199  A    between atoms: _481  and  _482
REMARK  200  A    between atoms: _481  and  _484
REMARK  201  A    between atoms: _484  and  _485
REMARK  202  A    between atoms: _489  and  _490
REMARK  203  A    between atoms: _495  and  _497
REMARK  204  A    between atoms: _497  and  _498
REMARK  205  A    between atoms: _497  and  _500
REMARK  206  A    between atoms: _503  and  _505
REMARK  207  A    between atoms: _505  and  _506
REMARK  208  A    between atoms: _505  and  _508
REMARK  209  A    between atoms: _508  and  _509
REMARK  210  A    between atoms: _514  and  _516
REMARK  211  A    between atoms: _516  and  _517
REMARK  212  A    between atoms: _516  and  _519
REMARK  213  A    between atoms: _519  and  _520
REMARK  214  A    between atoms: _523  and  _525
REMARK  215  A    between atoms: _525  and  _526
REMARK  216  A    between atoms: _525  and  _528
REMARK  217  A    between atoms: _528  and  _529
REMARK  218  A    between atoms: _532  and  _534
REMARK  219  A    between atoms: _534  and  _535
REMARK  220  A    between atoms: _537  and  _539
REMARK  221  A    between atoms: _539  and  _540
REMARK  222  A    between atoms: _539  and  _542
REMARK  223  A    between atoms: _542  and  _543
REMARK  224  A    between atoms: _543  and  _544
REMARK  225  A    between atoms: _544  and  _545
REMARK  226  A    between atoms: _554  and  _556
REMARK  227  A    between atoms: _556  and  _557
REMARK  228  A    between atoms: _556  and  _559
REMARK  229  A    between atoms: _559  and  _560
REMARK                            x       y       z     vdW  Elec       q    Type
REMARK                         _______ _______ _______ _____ _____    ______ ____
ROOT
ATOM      1  O   HOH     1       8.016   7.354  17.576  0.00  0.00    +0.000 OA
ENDROOT
TORSDOF 0
REMARK  Name = ../refined-set-2016/4kb9/4kb9_pocket.pdb
REMARK  229 active torsions:
REMARK  status: ('A' for Active; 'I' for Inactive)
REMARK    1  A    between atoms: _1  and  _3
REMARK    2  A    between atoms: _3  and  _4
REMARK    3  A    between atoms: _3  and  _6
REMARK    4  A    between atoms: _6  and  _7
REMARK    5  A    between atoms: _7  and  _8
REMARK    6  A    between atoms: _8  and  _9
REMARK    7  A    between atoms: _18  and  _20
REMARK    8  A    between atoms: _20  and  _21
REMARK    9  A    between atoms: _20  and  _23
REMARK   10  A    between atoms: _23  and  _24
REMARK   11  A    between atoms: _27  and  _29
REMARK   12  A    between atoms: _29  and  _30
REMARK   13  A    between atoms: _29  and  _32
REMARK   14  A    between atoms: _32  and  _33
REMARK   15  A    between atoms: _36  and  _38
REMARK   16  A    between atoms: _38  and  _39
REMARK   17  A    between atoms: _38  and  _41
REMARK   18  A    between atoms: _41  and  _42
REMARK   19  A    between atoms: _45  and  _47
REMARK   20  A    between atoms: _47  and  _48
REMARK   21  A    between atoms: _47  and  _50
REMARK   22  A    between atoms: _50  and  _51
REMARK   23  A    between atoms: _54  and  _56
REMARK   24  A    between atoms: _56  and  _57
REMARK   25  A    between atoms: _59  and  _61
REMARK   26  A    between atoms: _61  and  _62
REMARK   27  A    between atoms: _65  and  _67
REMARK   28  A    between atoms: _67  and  _68
REMARK   29  A    between atoms: _67  and  _70
REMARK   30  A    between atoms: _70  and  _71
REMARK   31  A    between atoms: _74  and  _76
REMARK   32  A    between atoms: _76  and  _77
REMARK   33  A    between atoms: _76  and  _79
REMARK   34  A    between atoms: _79  and  _80
REMARK   35  A    between atoms: _83  and  _85
REMARK   36  A    between atoms: _85  and  _86
REMARK   37  A    between atoms: _85  and  _88
REMARK   38  A    between atoms: _88  and  _89
REMARK   39  A    between atoms: _92  and  _94
REMARK   40  A    between atoms: _94  and  _95
REMARK   41  A    between atoms: _94  and  _97
REMARK   42  A    between atoms: _100  and  _102
REMARK   43  A    between atoms: _102  and  _103
REMARK   44  A    between atoms: _102  and  _105
REMARK   45  A    between atoms: _105  and  _106
REMARK   46  A    between atoms: _106  and  _107
REMARK   47  A    between atoms: _107  and  _108
REMARK   48  A    between atoms: _108  and  _109
REMARK   49  A    between atoms: _113  and  _115
REMARK   50  A    between atoms: _115  and  _116
REMARK   51  A    between atoms: _115  and  _118
REMARK   52  A    between atoms: _118  and  _119
REMARK   53  A    between atoms: _119  and  _120
REMARK   54  A    between atoms: _122  and  _124
REMARK   55  A    between atoms: _124  and  _125
REMARK   56  A    between atoms: _124  and  _127
REMARK   57  A    between atoms: _127  and  _128
REMARK   58  A    between atoms: _131  and  _133
REMARK   59  A    between atoms: _133  and  _134
REMARK   60  A    between atoms: _136  and  _138
REMARK   61  A    between atoms: _138  and  _139
REMARK   62  A    between atoms: _141  and  _143
REMARK   63  A    between atoms: _143  and  _144
REMARK   64  A    between atoms: _143  and  _146
REMARK   65  A    between atoms: _146  and  _147
REMARK   66  A    between atoms: _150  and  _152
REMARK   67  A    between atoms: _152  and  _153
REMARK   68  A    between atoms: _155  and  _157
REMARK   69  A    between atoms: _157  and  _158
REMARK   70  A    between atoms: _160  and  _162
REMARK   71  A    between atoms: _162  and  _163
REMARK   72  A    between atoms: _162  and  _165
REMARK   73  A    between atoms: _165  and  _166
REMARK   74  A    between atoms: _172  and  _174
REMARK   75  A    between atoms: _174  and  _175
REMARK   76  A    between atoms: _174  and  _177
REMARK   77  A    between atoms: _177  and  _178
REMARK   78  A    between atoms: _181  and  _183
REMARK   79  A    between atoms: _183  and  _184
REMARK   80  A    between atoms: _183  and  _186
REMARK   81  A    between atoms: _189  and  _191
REMARK   82  A    between atoms: _191  and  _192
REMARK   83  A    between atoms: _191  and  _194
REMARK   84  A    between atoms: _194  and  _195
REMARK   85  A    between atoms: _198  and  _200
REMARK   86  A    between atoms: _200  and  _201
REMARK   87  A    between atoms: _200  and  _203
REMARK   88  A    between atoms: _203  and  _204
REMARK   89  A    between atoms: _208  and  _209
REMARK   90  A    between atoms: _214  and  _216
REMARK   91  A    between atoms: _216  and  _217
REMARK   92  A    between atoms: _216  and  _219
REMARK   93  A    between atoms: _222  and  _224
REMARK   94  A    between atoms: _224  and  _225
REMARK   95  A    between atoms: _224  and  _227
REMARK   96  A    between atoms: _227  and  _228
REMARK   97  A    between atoms: _233  and  _235
REMARK   98  A    between atoms: _235  and  _236
REMARK   99  A    between atoms: _235  and  _238
REMARK  100  A    between atoms: _238  and  _239
REMARK  101  A    between atoms: _242  and  _244
REMARK  102  A    between atoms: _244  and  _245
REMARK  103  A    between atoms: _247  and  _249
REMARK  104  A    between atoms: _249  and  _250
REMARK  105  A    between atoms: _249  and  _252
REMARK  106  A    between atoms: _252  and  _253
REMARK  107  A    between atoms: _253  and  _254
REMARK  108  A    between atoms: _254  and  _255
REMARK  109  A    between atoms: _264  and  _266
REMARK  110  A    between atoms: _266  and  _267
REMARK  111  A    between atoms: _266  and  _269
REMARK  112  A    between atoms: _269  and  _270
REMARK  113  A    between atoms: _275  and  _277
REMARK  114  A    between atoms: _277  and  _278
REMARK  115  A    between atoms: _277  and  _280
REMARK  116  A    between atoms: _280  and  _281
REMARK  117  A    between atoms: _281  and  _282
REMARK  118  A    between atoms: _282  and  _283
REMARK  119  A    between atoms: _292  and  _294
REMARK  120  A    between atoms: _294  and  _295
REMARK  121  A    between atoms: _294  and  _297
REMARK  122  A    between atoms: _297  and  _298
REMARK  123  A    between atoms: _301  and  _303
REMARK  124  A    between atoms: _303  and  _304
REMARK  125  A    between atoms: _303  and  _306
REMARK  126  A    between atoms: _306  and  _307
REMARK  127  A    between atoms: _310  and  _312
REMARK  128  A    between atoms: _312  and  _313
REMARK  129  A    between atoms: _312  and  _315
REMARK  130  A    between atoms: _315  and  _316
REMARK  131  A    between atoms: _319  and  _321
REMARK  132  A    between atoms: _321  and  _322
REMARK  133  A    between atoms: _321  and  _324
REMARK  134  A    between atoms: _324  and  _325
REMARK  135  A    between atoms: _328  and  _330
REMARK  136  A    between atoms: _330  and  _331
REMARK  137  A    between atoms: _333  and  _335
REMARK  138  A    between atoms: _335  and  _336
REMARK  139  A    between atoms: _339  and  _341
REMARK  140  A    between atoms: _341  and  _342
REMARK  141  A    between atoms: _341  and  _344
REMARK  142  A    between atoms: _344  and  _345
REMARK  143  A    between atoms: _348  and  _350
REMARK  144  A    between atoms: _350  and  _351
REMARK  145  A    between atoms: _350  and  _353
REMARK  146  A    between atoms: _353  and  _354
REMARK  147  A    between atoms: _357  and  _359
REMARK  148  A    between atoms: _359  and  _360
REMARK  149  A    between atoms: _359  and  _362
REMARK  150  A    between atoms: _362  and  _363
REMARK  151  A    between atoms: _366  and  _368
REMARK  152  A    between atoms: _368  and  _369
REMARK  153  A    between atoms: _368  and  _371
REMARK  154  A    between atoms: _374  and  _376
REMARK  155  A    between atoms: _376  and  _377
REMARK  156  A    between atoms: _376  and  _379
REMARK  157  A    between atoms: _379  and  _380
REMARK  158  A    between atoms: _380  and  _381
REMARK  159  A    between atoms: _381  and  _382
REMARK  160  A    between atoms: _382  and  _383
REMARK  161  A    between atoms: _387  and  _389
REMARK  162  A    between atoms: _389  and  _390
REMARK  163  A    between atoms: _389  and  _392
REMARK  164  A    between atoms: _392  and  _393
REMARK  165  A    between atoms: _393  and  _394
REMARK  166  A    between atoms: _396  and  _398
REMARK  167  A    between atoms: _398  and  _399
REMARK  168  A    between atoms: _398  and  _401
REMARK  169  A    between atoms: _401  and  _402
REMARK  170  A    between atoms: _405  and  _407
REMARK  171  A    between atoms: _407  and  _408
REMARK  172  A    between atoms: _410  and  _412
REMARK  173  A    between atoms: _412  and  _413
REMARK  174  A    between atoms: _415  and  _417
REMARK  175  A    between atoms: _417  and  _418
REMARK  176  A    between atoms: _417  and  _420
REMARK  177  A    between atoms: _420  and  _421
REMARK  178  A    between atoms: _424  and  _426
REMARK  179  A    between atoms: _426  and  _427
REMARK  180  A    between atoms: _429  and  _431
REMARK  181  A    between atoms: _431  and  _432
REMARK  182  A    between atoms: _434  and  _436
REMARK  183  A    between atoms: _436  and  _437
REMARK  184  A    between atoms: _436  and  _439
REMARK  185  A    between atoms: _439  and  _440
REMARK  186  A    between atoms: _446  and  _448
REMARK  187  A    between atoms: _448  and  _449
REMARK  188  A    between atoms: _448  and  _451
REMARK  189  A    between atoms: _451  and  _452
REMARK  190  A    between atoms: _455  and  _457
REMARK  191  A    between atoms: _457  and  _458
REMARK  192  A    between atoms: _457  and  _460
REMARK  193  A    between atoms: _463  and  _465
REMARK  194  A    between atoms: _465  and  _466
REMARK  195  A    between atoms: _465  and  _468
REMARK  196  A    between atoms: _468  and  _469
REMARK  197  A    between atoms: _473  and  _474
REMARK  198  A    between atoms: _479  and  _481
REMARK  199  A    between atoms: _481  and  _482
REMARK  200  A    between atoms: _481  and  _484
REMARK  201  A    between atoms: _484  and  _485
REMARK  202  A    between atoms: _489  and  _490
REMARK  203  A    between atoms: _495  and  _497
REMARK  204  A    between atoms: _497  and  _498
REMARK  205  A    between atoms: _497  and  _500
REMARK  206  A    between atoms: _503  and  _505
REMARK  207  A    between atoms: _505  and  _506
REMARK  208  A    between atoms: _505  and  _508
REMARK  209  A    between atoms: _508  and  _509
REMARK  210  A    between atoms: _514  and  _516
REMARK  211  A    between atoms: _516  and  _517
REMARK  212  A    between atoms: _516  and  _519
REMARK  213  A    between atoms: _519  and  _520
REMARK  214  A    between atoms: _523  and  _525
REMARK  215  A    between atoms: _525  and  _526
REMARK  216  A    between atoms: _525  and  _528
REMARK  217  A    between atoms: _528  and  _529
REMARK  218  A    between atoms: _532  and  _534
REMARK  219  A    between atoms: _534  and  _535
REMARK  220  A    between atoms: _537  and  _539
REMARK  221  A    between atoms: _539  and  _540
REMARK  222  A    between atoms: _539  and  _542
REMARK  223  A    between atoms: _542  and  _543
REMARK  224  A    between atoms: _543  and  _544
REMARK  225  A    between atoms: _544  and  _545
REMARK  226  A    between atoms: _554  and  _556
REMARK  227  A    between atoms: _556  and  _557
REMARK  228  A    between atoms: _556  and  _559
REMARK  229  A    between atoms: _559  and  _560
REMARK                            x       y       z     vdW  Elec       q    Type
REMARK                         _______ _______ _______ _____ _____    ______ ____
ROOT
ATOM      1  O   HOH     1      20.457  21.662  13.566  0.00  0.00    +0.000 OA
ENDROOT
TORSDOF 0
REMARK  Name = ../refined-set-2016/4kb9/4kb9_pocket.pdb
REMARK  229 active torsions:
REMARK  status: ('A' for Active; 'I' for Inactive)
REMARK    1  A    between atoms: _1  and  _3
REMARK    2  A    between atoms: _3  and  _4
REMARK    3  A    between atoms: _3  and  _6
REMARK    4  A    between atoms: _6  and  _7
REMARK    5  A    between atoms: _7  and  _8
REMARK    6  A    between atoms: _8  and  _9
REMARK    7  A    between atoms: _18  and  _20
REMARK    8  A    between atoms: _20  and  _21
REMARK    9  A    between atoms: _20  and  _23
REMARK   10  A    between atoms: _23  and  _24
REMARK   11  A    between atoms: _27  and  _29
REMARK   12  A    between atoms: _29  and  _30
REMARK   13  A    between atoms: _29  and  _32
REMARK   14  A    between atoms: _32  and  _33
REMARK   15  A    between atoms: _36  and  _38
REMARK   16  A    between atoms: _38  and  _39
REMARK   17  A    between atoms: _38  and  _41
REMARK   18  A    between atoms: _41  and  _42
REMARK   19  A    between atoms: _45  and  _47
REMARK   20  A    between atoms: _47  and  _48
REMARK   21  A    between atoms: _47  and  _50
REMARK   22  A    between atoms: _50  and  _51
REMARK   23  A    between atoms: _54  and  _56
REMARK   24  A    between atoms: _56  and  _57
REMARK   25  A    between atoms: _59  and  _61
REMARK   26  A    between atoms: _61  and  _62
REMARK   27  A    between atoms: _65  and  _67
REMARK   28  A    between atoms: _67  and  _68
REMARK   29  A    between atoms: _67  and  _70
REMARK   30  A    between atoms: _70  and  _71
REMARK   31  A    between atoms: _74  and  _76
REMARK   32  A    between atoms: _76  and  _77
REMARK   33  A    between atoms: _76  and  _79
REMARK   34  A    between atoms: _79  and  _80
REMARK   35  A    between atoms: _83  and  _85
REMARK   36  A    between atoms: _85  and  _86
REMARK   37  A    between atoms: _85  and  _88
REMARK   38  A    between atoms: _88  and  _89
REMARK   39  A    between atoms: _92  and  _94
REMARK   40  A    between atoms: _94  and  _95
REMARK   41  A    between atoms: _94  and  _97
REMARK   42  A    between atoms: _100  and  _102
REMARK   43  A    between atoms: _102  and  _103
REMARK   44  A    between atoms: _102  and  _105
REMARK   45  A    between atoms: _105  and  _106
REMARK   46  A    between atoms: _106  and  _107
REMARK   47  A    between atoms: _107  and  _108
REMARK   48  A    between atoms: _108  and  _109
REMARK   49  A    between atoms: _113  and  _115
REMARK   50  A    between atoms: _115  and  _116
REMARK   51  A    between atoms: _115  and  _118
REMARK   52  A    between atoms: _118  and  _119
REMARK   53  A    between atoms: _119  and  _120
REMARK   54  A    between atoms: _122  and  _124
REMARK   55  A    between atoms: _124  and  _125
REMARK   56  A    between atoms: _124  and  _127
REMARK   57  A    between atoms: _127  and  _128
REMARK   58  A    between atoms: _131  and  _133
REMARK   59  A    between atoms: _133  and  _134
REMARK   60  A    between atoms: _136  and  _138
REMARK   61  A    between atoms: _138  and  _139
REMARK   62  A    between atoms: _141  and  _143
REMARK   63  A    between atoms: _143  and  _144
REMARK   64  A    between atoms: _143  and  _146
REMARK   65  A    between atoms: _146  and  _147
REMARK   66  A    between atoms: _150  and  _152
REMARK   67  A    between atoms: _152  and  _153
REMARK   68  A    between atoms: _155  and  _157
REMARK   69  A    between atoms: _157  and  _158
REMARK   70  A    between atoms: _160  and  _162
REMARK   71  A    between atoms: _162  and  _163
REMARK   72  A    between atoms: _162  and  _165
REMARK   73  A    between atoms: _165  and  _166
REMARK   74  A    between atoms: _172  and  _174
REMARK   75  A    between atoms: _174  and  _175
REMARK   76  A    between atoms: _174  and  _177
REMARK   77  A    between atoms: _177  and  _178
REMARK   78  A    between atoms: _181  and  _183
REMARK   79  A    between atoms: _183  and  _184
REMARK   80  A    between atoms: _183  and  _186
REMARK   81  A    between atoms: _189  and  _191
REMARK   82  A    between atoms: _191  and  _192
REMARK   83  A    between atoms: _191  and  _194
REMARK   84  A    between atoms: _194  and  _195
REMARK   85  A    between atoms: _198  and  _200
REMARK   86  A    between atoms: _200  and  _201
REMARK   87  A    between atoms: _200  and  _203
REMARK   88  A    between atoms: _203  and  _204
REMARK   89  A    between atoms: _208  and  _209
REMARK   90  A    between atoms: _214  and  _216
REMARK   91  A    between atoms: _216  and  _217
REMARK   92  A    between atoms: _216  and  _219
REMARK   93  A    between atoms: _222  and  _224
REMARK   94  A    between atoms: _224  and  _225
REMARK   95  A    between atoms: _224  and  _227
REMARK   96  A    between atoms: _227  and  _228
REMARK   97  A    between atoms: _233  and  _235
REMARK   98  A    between atoms: _235  and  _236
REMARK   99  A    between atoms: _235  and  _238
REMARK  100  A    between atoms: _238  and  _239
REMARK  101  A    between atoms: _242  and  _244
REMARK  102  A    between atoms: _244  and  _245
REMARK  103  A    between atoms: _247  and  _249
REMARK  104  A    between atoms: _249  and  _250
REMARK  105  A    between atoms: _249  and  _252
REMARK  106  A    between atoms: _252  and  _253
REMARK  107  A    between atoms: _253  and  _254
REMARK  108  A    between atoms: _254  and  _255
REMARK  109  A    between atoms: _264  and  _266
REMARK  110  A    between atoms: _266  and  _267
REMARK  111  A    between atoms: _266  and  _269
REMARK  112  A    between atoms: _269  and  _270
REMARK  113  A    between atoms: _275  and  _277
REMARK  114  A    between atoms: _277  and  _278
REMARK  115  A    between atoms: _277  and  _280
REMARK  116  A    between atoms: _280  and  _281
REMARK  117  A    between atoms: _281  and  _282
REMARK  118  A    between atoms: _282  and  _283
REMARK  119  A    between atoms: _292  and  _294
REMARK  120  A    between atoms: _294  and  _295
REMARK  121  A    between atoms: _294  and  _297
REMARK  122  A    between atoms: _297  and  _298
REMARK  123  A    between atoms: _301  and  _303
REMARK  124  A    between atoms: _303  and  _304
REMARK  125  A    between atoms: _303  and  _306
REMARK  126  A    between atoms: _306  and  _307
REMARK  127  A    between atoms: _310  and  _312
REMARK  128  A    between atoms: _312  and  _313
REMARK  129  A    between atoms: _312  and  _315
REMARK  130  A    between atoms: _315  and  _316
REMARK  131  A    between atoms: _319  and  _321
REMARK  132  A    between atoms: _321  and  _322
REMARK  133  A    between atoms: _321  and  _324
REMARK  134  A    between atoms: _324  and  _325
REMARK  135  A    between atoms: _328  and  _330
REMARK  136  A    between atoms: _330  and  _331
REMARK  137  A    between atoms: _333  and  _335
REMARK  138  A    between atoms: _335  and  _336
REMARK  139  A    between atoms: _339  and  _341
REMARK  140  A    between atoms: _341  and  _342
REMARK  141  A    between atoms: _341  and  _344
REMARK  142  A    between atoms: _344  and  _345
REMARK  143  A    between atoms: _348  and  _350
REMARK  144  A    between atoms: _350  and  _351
REMARK  145  A    between atoms: _350  and  _353
REMARK  146  A    between atoms: _353  and  _354
REMARK  147  A    between atoms: _357  and  _359
REMARK  148  A    between atoms: _359  and  _360
REMARK  149  A    between atoms: _359  and  _362
REMARK  150  A    between atoms: _362  and  _363
REMARK  151  A    between atoms: _366  and  _368
REMARK  152  A    between atoms: _368  and  _369
REMARK  153  A    between atoms: _368  and  _371
REMARK  154  A    between atoms: _374  and  _376
REMARK  155  A    between atoms: _376  and  _377
REMARK  156  A    between atoms: _376  and  _379
REMARK  157  A    between atoms: _379  and  _380
REMARK  158  A    between atoms: _380  and  _381
REMARK  159  A    between atoms: _381  and  _382
REMARK  160  A    between atoms: _382  and  _383
REMARK  161  A    between atoms: _387  and  _389
REMARK  162  A    between atoms: _389  and  _390
REMARK  163  A    between atoms: _389  and  _392
REMARK  164  A    between atoms: _392  and  _393
REMARK  165  A    between atoms: _393  and  _394
REMARK  166  A    between atoms: _396  and  _398
REMARK  167  A    between atoms: _398  and  _399
REMARK  168  A    between atoms: _398  and  _401
REMARK  169  A    between atoms: _401  and  _402
REMARK  170  A    between atoms: _405  and  _407
REMARK  171  A    between atoms: _407  and  _408
REMARK  172  A    between atoms: _410  and  _412
REMARK  173  A    between atoms: _412  and  _413
REMARK  174  A    between atoms: _415  and  _417
REMARK  175  A    between atoms: _417  and  _418
REMARK  176  A    between atoms: _417  and  _420
REMARK  177  A    between atoms: _420  and  _421
REMARK  178  A    between atoms: _424  and  _426
REMARK  179  A    between atoms: _426  and  _427
REMARK  180  A    between atoms: _429  and  _431
REMARK  181  A    between atoms: _431  and  _432
REMARK  182  A    between atoms: _434  and  _436
REMARK  183  A    between atoms: _436  and  _437
REMARK  184  A    between atoms: _436  and  _439
REMARK  185  A    between atoms: _439  and  _440
REMARK  186  A    between atoms: _446  and  _448
REMARK  187  A    between atoms: _448  and  _449
REMARK  188  A    between atoms: _448  and  _451
REMARK  189  A    between atoms: _451  and  _452
REMARK  190  A    between atoms: _455  and  _457
REMARK  191  A    between atoms: _457  and  _458
REMARK  192  A    between atoms: _457  and  _460
REMARK  193  A    between atoms: _463  and  _465
REMARK  194  A    between atoms: _465  and  _466
REMARK  195  A    between atoms: _465  and  _468
REMARK  196  A    between atoms: _468  and  _469
REMARK  197  A    between atoms: _473  and  _474
REMARK  198  A    between atoms: _479  and  _481
REMARK  199  A    between atoms: _481  and  _482
REMARK  200  A    between atoms: _481  and  _484
REMARK  201  A    between atoms: _484  and  _485
REMARK  202  A    between atoms: _489  and  _490
REMARK  203  A    between atoms: _495  and  _497
REMARK  204  A    between atoms: _497  and  _498
REMARK  205  A    between atoms: _497  and  _500
REMARK  206  A    between atoms: _503  and  _505
REMARK  207  A    between atoms: _505  and  _506
REMARK  208  A    between atoms: _505  and  _508
REMARK  209  A    between atoms: _508  and  _509
REMARK  210  A    between atoms: _514  and  _516
REMARK  211  A    between atoms: _516  and  _517
REMARK  212  A    between atoms: _516  and  _519
REMARK  213  A    between atoms: _519  and  _520
REMARK  214  A    between atoms: _523  and  _525
REMARK  215  A    between atoms: _525  and  _526
REMARK  216  A    between atoms: _525  and  _528
REMARK  217  A    between atoms: _528  and  _529
REMARK  218  A    between atoms: _532  and  _534
REMARK  219  A    between atoms: _534  and  _535
REMARK  220  A    between atoms: _537  and  _539
REMARK  221  A    between atoms: _539  and  _540
REMARK  222  A    between atoms: _539  and  _542
REMARK  223  A    between atoms: _542  and  _543
REMARK  224  A    between atoms: _543  and  _544
REMARK  225  A    between atoms: _544  and  _545
REMARK  226  A    between atoms: _554  and  _556
REMARK  227  A    between atoms: _556  and  _557
REMARK  228  A    between atoms: _556  and  _559
REMARK  229  A    between atoms: _559  and  _560
REMARK                            x       y       z     vdW  Elec       q    Type
REMARK                         _______ _______ _______ _____ _____    ______ ____
ROOT
ATOM      1  O   HOH     1      24.637  21.753  11.469  0.00  0.00    +0.000 OA
ENDROOT
TORSDOF 0
REMARK  Name = ../refined-set-2016/4kb9/4kb9_pocket.pdb
REMARK  229 active torsions:
REMARK  status: ('A' for Active; 'I' for Inactive)
REMARK    1  A    between atoms: _1  and  _3
REMARK    2  A    between atoms: _3  and  _4
REMARK    3  A    between atoms: _3  and  _6
REMARK    4  A    between atoms: _6  and  _7
REMARK    5  A    between atoms: _7  and  _8
REMARK    6  A    between atoms: _8  and  _9
REMARK    7  A    between atoms: _18  and  _20
REMARK    8  A    between atoms: _20  and  _21
REMARK    9  A    between atoms: _20  and  _23
REMARK   10  A    between atoms: _23  and  _24
REMARK   11  A    between atoms: _27  and  _29
REMARK   12  A    between atoms: _29  and  _30
REMARK   13  A    between atoms: _29  and  _32
REMARK   14  A    between atoms: _32  and  _33
REMARK   15  A    between atoms: _36  and  _38
REMARK   16  A    between atoms: _38  and  _39
REMARK   17  A    between atoms: _38  and  _41
REMARK   18  A    between atoms: _41  and  _42
REMARK   19  A    between atoms: _45  and  _47
REMARK   20  A    between atoms: _47  and  _48
REMARK   21  A    between atoms: _47  and  _50
REMARK   22  A    between atoms: _50  and  _51
REMARK   23  A    between atoms: _54  and  _56
REMARK   24  A    between atoms: _56  and  _57
REMARK   25  A    between atoms: _59  and  _61
REMARK   26  A    between atoms: _61  and  _62
REMARK   27  A    between atoms: _65  and  _67
REMARK   28  A    between atoms: _67  and  _68
REMARK   29  A    between atoms: _67  and  _70
REMARK   30  A    between atoms: _70  and  _71
REMARK   31  A    between atoms: _74  and  _76
REMARK   32  A    between atoms: _76  and  _77
REMARK   33  A    between atoms: _76  and  _79
REMARK   34  A    between atoms: _79  and  _80
REMARK   35  A    between atoms: _83  and  _85
REMARK   36  A    between atoms: _85  and  _86
REMARK   37  A    between atoms: _85  and  _88
REMARK   38  A    between atoms: _88  and  _89
REMARK   39  A    between atoms: _92  and  _94
REMARK   40  A    between atoms: _94  and  _95
REMARK   41  A    between atoms: _94  and  _97
REMARK   42  A    between atoms: _100  and  _102
REMARK   43  A    between atoms: _102  and  _103
REMARK   44  A    between atoms: _102  and  _105
REMARK   45  A    between atoms: _105  and  _106
REMARK   46  A    between atoms: _106  and  _107
REMARK   47  A    between atoms: _107  and  _108
REMARK   48  A    between atoms: _108  and  _109
REMARK   49  A    between atoms: _113  and  _115
REMARK   50  A    between atoms: _115  and  _116
REMARK   51  A    between atoms: _115  and  _118
REMARK   52  A    between atoms: _118  and  _119
REMARK   53  A    between atoms: _119  and  _120
REMARK   54  A    between atoms: _122  and  _124
REMARK   55  A    between atoms: _124  and  _125
REMARK   56  A    between atoms: _124  and  _127
REMARK   57  A    between atoms: _127  and  _128
REMARK   58  A    between atoms: _131  and  _133
REMARK   59  A    between atoms: _133  and  _134
REMARK   60  A    between atoms: _136  and  _138
REMARK   61  A    between atoms: _138  and  _139
REMARK   62  A    between atoms: _141  and  _143
REMARK   63  A    between atoms: _143  and  _144
REMARK   64  A    between atoms: _143  and  _146
REMARK   65  A    between atoms: _146  and  _147
REMARK   66  A    between atoms: _150  and  _152
REMARK   67  A    between atoms: _152  and  _153
REMARK   68  A    between atoms: _155  and  _157
REMARK   69  A    between atoms: _157  and  _158
REMARK   70  A    between atoms: _160  and  _162
REMARK   71  A    between atoms: _162  and  _163
REMARK   72  A    between atoms: _162  and  _165
REMARK   73  A    between atoms: _165  and  _166
REMARK   74  A    between atoms: _172  and  _174
REMARK   75  A    between atoms: _174  and  _175
REMARK   76  A    between atoms: _174  and  _177
REMARK   77  A    between atoms: _177  and  _178
REMARK   78  A    between atoms: _181  and  _183
REMARK   79  A    between atoms: _183  and  _184
REMARK   80  A    between atoms: _183  and  _186
REMARK   81  A    between atoms: _189  and  _191
REMARK   82  A    between atoms: _191  and  _192
REMARK   83  A    between atoms: _191  and  _194
REMARK   84  A    between atoms: _194  and  _195
REMARK   85  A    between atoms: _198  and  _200
REMARK   86  A    between atoms: _200  and  _201
REMARK   87  A    between atoms: _200  and  _203
REMARK   88  A    between atoms: _203  and  _204
REMARK   89  A    between atoms: _208  and  _209
REMARK   90  A    between atoms: _214  and  _216
REMARK   91  A    between atoms: _216  and  _217
REMARK   92  A    between atoms: _216  and  _219
REMARK   93  A    between atoms: _222  and  _224
REMARK   94  A    between atoms: _224  and  _225
REMARK   95  A    between atoms: _224  and  _227
REMARK   96  A    between atoms: _227  and  _228
REMARK   97  A    between atoms: _233  and  _235
REMARK   98  A    between atoms: _235  and  _236
REMARK   99  A    between atoms: _235  and  _238
REMARK  100  A    between atoms: _238  and  _239
REMARK  101  A    between atoms: _242  and  _244
REMARK  102  A    between atoms: _244  and  _245
REMARK  103  A    between atoms: _247  and  _249
REMARK  104  A    between atoms: _249  and  _250
REMARK  105  A    between atoms: _249  and  _252
REMARK  106  A    between atoms: _252  and  _253
REMARK  107  A    between atoms: _253  and  _254
REMARK  108  A    between atoms: _254  and  _255
REMARK  109  A    between atoms: _264  and  _266
REMARK  110  A    between atoms: _266  and  _267
REMARK  111  A    between atoms: _266  and  _269
REMARK  112  A    between atoms: _269  and  _270
REMARK  113  A    between atoms: _275  and  _277
REMARK  114  A    between atoms: _277  and  _278
REMARK  115  A    between atoms: _277  and  _280
REMARK  116  A    between atoms: _280  and  _281
REMARK  117  A    between atoms: _281  and  _282
REMARK  118  A    between atoms: _282  and  _283
REMARK  119  A    between atoms: _292  and  _294
REMARK  120  A    between atoms: _294  and  _295
REMARK  121  A    between atoms: _294  and  _297
REMARK  122  A    between atoms: _297  and  _298
REMARK  123  A    between atoms: _301  and  _303
REMARK  124  A    between atoms: _303  and  _304
REMARK  125  A    between atoms: _303  and  _306
REMARK  126  A    between atoms: _306  and  _307
REMARK  127  A    between atoms: _310  and  _312
REMARK  128  A    between atoms: _312  and  _313
REMARK  129  A    between atoms: _312  and  _315
REMARK  130  A    between atoms: _315  and  _316
REMARK  131  A    between atoms: _319  and  _321
REMARK  132  A    between atoms: _321  and  _322
REMARK  133  A    between atoms: _321  and  _324
REMARK  134  A    between atoms: _324  and  _325
REMARK  135  A    between atoms: _328  and  _330
REMARK  136  A    between atoms: _330  and  _331
REMARK  137  A    between atoms: _333  and  _335
REMARK  138  A    between atoms: _335  and  _336
REMARK  139  A    between atoms: _339  and  _341
REMARK  140  A    between atoms: _341  and  _342
REMARK  141  A    between atoms: _341  and  _344
REMARK  142  A    between atoms: _344  and  _345
REMARK  143  A    between atoms: _348  and  _350
REMARK  144  A    between atoms: _350  and  _351
REMARK  145  A    between atoms: _350  and  _353
REMARK  146  A    between atoms: _353  and  _354
REMARK  147  A    between atoms: _357  and  _359
REMARK  148  A    between atoms: _359  and  _360
REMARK  149  A    between atoms: _359  and  _362
REMARK  150  A    between atoms: _362  and  _363
REMARK  151  A    between atoms: _366  and  _368
REMARK  152  A    between atoms: _368  and  _369
REMARK  153  A    between atoms: _368  and  _371
REMARK  154  A    between atoms: _374  and  _376
REMARK  155  A    between atoms: _376  and  _377
REMARK  156  A    between atoms: _376  and  _379
REMARK  157  A    between atoms: _379  and  _380
REMARK  158  A    between atoms: _380  and  _381
REMARK  159  A    between atoms: _381  and  _382
REMARK  160  A    between atoms: _382  and  _383
REMARK  161  A    between atoms: _387  and  _389
REMARK  162  A    between atoms: _389  and  _390
REMARK  163  A    between atoms: _389  and  _392
REMARK  164  A    between atoms: _392  and  _393
REMARK  165  A    between atoms: _393  and  _394
REMARK  166  A    between atoms: _396  and  _398
REMARK  167  A    between atoms: _398  and  _399
REMARK  168  A    between atoms: _398  and  _401
REMARK  169  A    between atoms: _401  and  _402
REMARK  170  A    between atoms: _405  and  _407
REMARK  171  A    between atoms: _407  and  _408
REMARK  172  A    between atoms: _410  and  _412
REMARK  173  A    between atoms: _412  and  _413
REMARK  174  A    between atoms: _415  and  _417
REMARK  175  A    between atoms: _417  and  _418
REMARK  176  A    between atoms: _417  and  _420
REMARK  177  A    between atoms: _420  and  _421
REMARK  178  A    between atoms: _424  and  _426
REMARK  179  A    between atoms: _426  and  _427
REMARK  180  A    between atoms: _429  and  _431
REMARK  181  A    between atoms: _431  and  _432
REMARK  182  A    between atoms: _434  and  _436
REMARK  183  A    between atoms: _436  and  _437
REMARK  184  A    between atoms: _436  and  _439
REMARK  185  A    between atoms: _439  and  _440
REMARK  186  A    between atoms: _446  and  _448
REMARK  187  A    between atoms: _448  and  _449
REMARK  188  A    between atoms: _448  and  _451
REMARK  189  A    between atoms: _451  and  _452
REMARK  190  A    between atoms: _455  and  _457
REMARK  191  A    between atoms: _457  and  _458
REMARK  192  A    between atoms: _457  and  _460
REMARK  193  A    between atoms: _463  and  _465
REMARK  194  A    between atoms: _465  and  _466
REMARK  195  A    between atoms: _465  and  _468
REMARK  196  A    between atoms: _468  and  _469
REMARK  197  A    between atoms: _473  and  _474
REMARK  198  A    between atoms: _479  and  _481
REMARK  199  A    between atoms: _481  and  _482
REMARK  200  A    between atoms: _481  and  _484
REMARK  201  A    between atoms: _484  and  _485
REMARK  202  A    between atoms: _489  and  _490
REMARK  203  A    between atoms: _495  and  _497
REMARK  204  A    between atoms: _497  and  _498
REMARK  205  A    between atoms: _497  and  _500
REMARK  206  A    between atoms: _503  and  _505
REMARK  207  A    between atoms: _505  and  _506
REMARK  208  A    between atoms: _505  and  _508
REMARK  209  A    between atoms: _508  and  _509
REMARK  210  A    between atoms: _514  and  _516
REMARK  211  A    between atoms: _516  and  _517
REMARK  212  A    between atoms: _516  and  _519
REMARK  213  A    between atoms: _519  and  _520
REMARK  214  A    between atoms: _523  and  _525
REMARK  215  A    between atoms: _525  and  _526
REMARK  216  A    between atoms: _525  and  _528
REMARK  217  A    between atoms: _528  and  _529
REMARK  218  A    between atoms: _532  and  _534
REMARK  219  A    between atoms: _534  and  _535
REMARK  220  A    between atoms: _537  and  _539
REMARK  221  A    between atoms: _539  and  _540
REMARK  222  A    between atoms: _539  and  _542
REMARK  223  A    between atoms: _542  and  _543
REMARK  224  A    between atoms: _543  and  _544
REMARK  225  A    between atoms: _544  and  _545
REMARK  226  A    between atoms: _554  and  _556
REMARK  227  A    between atoms: _556  and  _557
REMARK  228  A    between atoms: _556  and  _559
REMARK  229  A    between atoms: _559  and  _560
REMARK                            x       y       z     vdW  Elec       q    Type
REMARK                         _______ _______ _______ _____ _____    ______ ____
ROOT
ATOM      1  O   HOH     1      22.102  20.520  11.611  0.00  0.00    +0.000 OA
ENDROOT
TORSDOF 0
REMARK  Name = ../refined-set-2016/4kb9/4kb9_pocket.pdb
REMARK  229 active torsions:
REMARK  status: ('A' for Active; 'I' for Inactive)
REMARK    1  A    between atoms: _1  and  _3
REMARK    2  A    between atoms: _3  and  _4
REMARK    3  A    between atoms: _3  and  _6
REMARK    4  A    between atoms: _6  and  _7
REMARK    5  A    between atoms: _7  and  _8
REMARK    6  A    between atoms: _8  and  _9
REMARK    7  A    between atoms: _18  and  _20
REMARK    8  A    between atoms: _20  and  _21
REMARK    9  A    between atoms: _20  and  _23
REMARK   10  A    between atoms: _23  and  _24
REMARK   11  A    between atoms: _27  and  _29
REMARK   12  A    between atoms: _29  and  _30
REMARK   13  A    between atoms: _29  and  _32
REMARK   14  A    between atoms: _32  and  _33
REMARK   15  A    between atoms: _36  and  _38
REMARK   16  A    between atoms: _38  and  _39
REMARK   17  A    between atoms: _38  and  _41
REMARK   18  A    between atoms: _41  and  _42
REMARK   19  A    between atoms: _45  and  _47
REMARK   20  A    between atoms: _47  and  _48
REMARK   21  A    between atoms: _47  and  _50
REMARK   22  A    between atoms: _50  and  _51
REMARK   23  A    between atoms: _54  and  _56
REMARK   24  A    between atoms: _56  and  _57
REMARK   25  A    between atoms: _59  and  _61
REMARK   26  A    between atoms: _61  and  _62
REMARK   27  A    between atoms: _65  and  _67
REMARK   28  A    between atoms: _67  and  _68
REMARK   29  A    between atoms: _67  and  _70
REMARK   30  A    between atoms: _70  and  _71
REMARK   31  A    between atoms: _74  and  _76
REMARK   32  A    between atoms: _76  and  _77
REMARK   33  A    between atoms: _76  and  _79
REMARK   34  A    between atoms: _79  and  _80
REMARK   35  A    between atoms: _83  and  _85
REMARK   36  A    between atoms: _85  and  _86
REMARK   37  A    between atoms: _85  and  _88
REMARK   38  A    between atoms: _88  and  _89
REMARK   39  A    between atoms: _92  and  _94
REMARK   40  A    between atoms: _94  and  _95
REMARK   41  A    between atoms: _94  and  _97
REMARK   42  A    between atoms: _100  and  _102
REMARK   43  A    between atoms: _102  and  _103
REMARK   44  A    between atoms: _102  and  _105
REMARK   45  A    between atoms: _105  and  _106
REMARK   46  A    between atoms: _106  and  _107
REMARK   47  A    between atoms: _107  and  _108
REMARK   48  A    between atoms: _108  and  _109
REMARK   49  A    between atoms: _113  and  _115
REMARK   50  A    between atoms: _115  and  _116
REMARK   51  A    between atoms: _115  and  _118
REMARK   52  A    between atoms: _118  and  _119
REMARK   53  A    between atoms: _119  and  _120
REMARK   54  A    between atoms: _122  and  _124
REMARK   55  A    between atoms: _124  and  _125
REMARK   56  A    between atoms: _124  and  _127
REMARK   57  A    between atoms: _127  and  _128
REMARK   58  A    between atoms: _131  and  _133
REMARK   59  A    between atoms: _133  and  _134
REMARK   60  A    between atoms: _136  and  _138
REMARK   61  A    between atoms: _138  and  _139
REMARK   62  A    between atoms: _141  and  _143
REMARK   63  A    between atoms: _143  and  _144
REMARK   64  A    between atoms: _143  and  _146
REMARK   65  A    between atoms: _146  and  _147
REMARK   66  A    between atoms: _150  and  _152
REMARK   67  A    between atoms: _152  and  _153
REMARK   68  A    between atoms: _155  and  _157
REMARK   69  A    between atoms: _157  and  _158
REMARK   70  A    between atoms: _160  and  _162
REMARK   71  A    between atoms: _162  and  _163
REMARK   72  A    between atoms: _162  and  _165
REMARK   73  A    between atoms: _165  and  _166
REMARK   74  A    between atoms: _172  and  _174
REMARK   75  A    between atoms: _174  and  _175
REMARK   76  A    between atoms: _174  and  _177
REMARK   77  A    between atoms: _177  and  _178
REMARK   78  A    between atoms: _181  and  _183
REMARK   79  A    between atoms: _183  and  _184
REMARK   80  A    between atoms: _183  and  _186
REMARK   81  A    between atoms: _189  and  _191
REMARK   82  A    between atoms: _191  and  _192
REMARK   83  A    between atoms: _191  and  _194
REMARK   84  A    between atoms: _194  and  _195
REMARK   85  A    between atoms: _198  and  _200
REMARK   86  A    between atoms: _200  and  _201
REMARK   87  A    between atoms: _200  and  _203
REMARK   88  A    between atoms: _203  and  _204
REMARK   89  A    between atoms: _208  and  _209
REMARK   90  A    between atoms: _214  and  _216
REMARK   91  A    between atoms: _216  and  _217
REMARK   92  A    between atoms: _216  and  _219
REMARK   93  A    between atoms: _222  and  _224
REMARK   94  A    between atoms: _224  and  _225
REMARK   95  A    between atoms: _224  and  _227
REMARK   96  A    between atoms: _227  and  _228
REMARK   97  A    between atoms: _233  and  _235
REMARK   98  A    between atoms: _235  and  _236
REMARK   99  A    between atoms: _235  and  _238
REMARK  100  A    between atoms: _238  and  _239
REMARK  101  A    between atoms: _242  and  _244
REMARK  102  A    between atoms: _244  and  _245
REMARK  103  A    between atoms: _247  and  _249
REMARK  104  A    between atoms: _249  and  _250
REMARK  105  A    between atoms: _249  and  _252
REMARK  106  A    between atoms: _252  and  _253
REMARK  107  A    between atoms: _253  and  _254
REMARK  108  A    between atoms: _254  and  _255
REMARK  109  A    between atoms: _264  and  _266
REMARK  110  A    between atoms: _266  and  _267
REMARK  111  A    between atoms: _266  and  _269
REMARK  112  A    between atoms: _269  and  _270
REMARK  113  A    between atoms: _275  and  _277
REMARK  114  A    between atoms: _277  and  _278
REMARK  115  A    between atoms: _277  and  _280
REMARK  116  A    between atoms: _280  and  _281
REMARK  117  A    between atoms: _281  and  _282
REMARK  118  A    between atoms: _282  and  _283
REMARK  119  A    between atoms: _292  and  _294
REMARK  120  A    between atoms: _294  and  _295
REMARK  121  A    between atoms: _294  and  _297
REMARK  122  A    between atoms: _297  and  _298
REMARK  123  A    between atoms: _301  and  _303
REMARK  124  A    between atoms: _303  and  _304
REMARK  125  A    between atoms: _303  and  _306
REMARK  126  A    between atoms: _306  and  _307
REMARK  127  A    between atoms: _310  and  _312
REMARK  128  A    between atoms: _312  and  _313
REMARK  129  A    between atoms: _312  and  _315
REMARK  130  A    between atoms: _315  and  _316
REMARK  131  A    between atoms: _319  and  _321
REMARK  132  A    between atoms: _321  and  _322
REMARK  133  A    between atoms: _321  and  _324
REMARK  134  A    between atoms: _324  and  _325
REMARK  135  A    between atoms: _328  and  _330
REMARK  136  A    between atoms: _330  and  _331
REMARK  137  A    between atoms: _333  and  _335
REMARK  138  A    between atoms: _335  and  _336
REMARK  139  A    between atoms: _339  and  _341
REMARK  140  A    between atoms: _341  and  _342
REMARK  141  A    between atoms: _341  and  _344
REMARK  142  A    between atoms: _344  and  _345
REMARK  143  A    between atoms: _348  and  _350
REMARK  144  A    between atoms: _350  and  _351
REMARK  145  A    between atoms: _350  and  _353
REMARK  146  A    between atoms: _353  and  _354
REMARK  147  A    between atoms: _357  and  _359
REMARK  148  A    between atoms: _359  and  _360
REMARK  149  A    between atoms: _359  and  _362
REMARK  150  A    between atoms: _362  and  _363
REMARK  151  A    between atoms: _366  and  _368
REMARK  152  A    between atoms: _368  and  _369
REMARK  153  A    between atoms: _368  and  _371
REMARK  154  A    between atoms: _374  and  _376
REMARK  155  A    between atoms: _376  and  _377
REMARK  156  A    between atoms: _376  and  _379
REMARK  157  A    between atoms: _379  and  _380
REMARK  158  A    between atoms: _380  and  _381
REMARK  159  A    between atoms: _381  and  _382
REMARK  160  A    between atoms: _382  and  _383
REMARK  161  A    between atoms: _387  and  _389
REMARK  162  A    between atoms: _389  and  _390
REMARK  163  A    between atoms: _389  and  _392
REMARK  164  A    between atoms: _392  and  _393
REMARK  165  A    between atoms: _393  and  _394
REMARK  166  A    between atoms: _396  and  _398
REMARK  167  A    between atoms: _398  and  _399
REMARK  168  A    between atoms: _398  and  _401
REMARK  169  A    between atoms: _401  and  _402
REMARK  170  A    between atoms: _405  and  _407
REMARK  171  A    between atoms: _407  and  _408
REMARK  172  A    between atoms: _410  and  _412
REMARK  173  A    between atoms: _412  and  _413
REMARK  174  A    between atoms: _415  and  _417
REMARK  175  A    between atoms: _417  and  _418
REMARK  176  A    between atoms: _417  and  _420
REMARK  177  A    between atoms: _420  and  _421
REMARK  178  A    between atoms: _424  and  _426
REMARK  179  A    between atoms: _426  and  _427
REMARK  180  A    between atoms: _429  and  _431
REMARK  181  A    between atoms: _431  and  _432
REMARK  182  A    between atoms: _434  and  _436
REMARK  183  A    between atoms: _436  and  _437
REMARK  184  A    between atoms: _436  and  _439
REMARK  185  A    between atoms: _439  and  _440
REMARK  186  A    between atoms: _446  and  _448
REMARK  187  A    between atoms: _448  and  _449
REMARK  188  A    between atoms: _448  and  _451
REMARK  189  A    between atoms: _451  and  _452
REMARK  190  A    between atoms: _455  and  _457
REMARK  191  A    between atoms: _457  and  _458
REMARK  192  A    between atoms: _457  and  _460
REMARK  193  A    between atoms: _463  and  _465
REMARK  194  A    between atoms: _465  and  _466
REMARK  195  A    between atoms: _465  and  _468
REMARK  196  A    between atoms: _468  and  _469
REMARK  197  A    between atoms: _473  and  _474
REMARK  198  A    between atoms: _479  and  _481
REMARK  199  A    between atoms: _481  and  _482
REMARK  200  A    between atoms: _481  and  _484
REMARK  201  A    between atoms: _484  and  _485
REMARK  202  A    between atoms: _489  and  _490
REMARK  203  A    between atoms: _495  and  _497
REMARK  204  A    between atoms: _497  and  _498
REMARK  205  A    between atoms: _497  and  _500
REMARK  206  A    between atoms: _503  and  _505
REMARK  207  A    between atoms: _505  and  _506
REMARK  208  A    between atoms: _505  and  _508
REMARK  209  A    between atoms: _508  and  _509
REMARK  210  A    between atoms: _514  and  _516
REMARK  211  A    between atoms: _516  and  _517
REMARK  212  A    between atoms: _516  and  _519
REMARK  213  A    between atoms: _519  and  _520
REMARK  214  A    between atoms: _523  and  _525
REMARK  215  A    between atoms: _525  and  _526
REMARK  216  A    between atoms: _525  and  _528
REMARK  217  A    between atoms: _528  and  _529
REMARK  218  A    between atoms: _532  and  _534
REMARK  219  A    between atoms: _534  and  _535
REMARK  220  A    between atoms: _537  and  _539
REMARK  221  A    between atoms: _539  and  _540
REMARK  222  A    between atoms: _539  and  _542
REMARK  223  A    between atoms: _542  and  _543
REMARK  224  A    between atoms: _543  and  _544
REMARK  225  A    between atoms: _544  and  _545
REMARK  226  A    between atoms: _554  and  _556
REMARK  227  A    between atoms: _556  and  _557
REMARK  228  A    between atoms: _556  and  _559
REMARK  229  A    between atoms: _559  and  _560
REMARK                            x       y       z     vdW  Elec       q    Type
REMARK                         _______ _______ _______ _____ _____    ______ ____
ROOT
ATOM      1  O   HOH     1      20.205  24.315  12.050  0.00  0.00    +0.000 OA
ENDROOT
TORSDOF 0
REMARK  Name = ../refined-set-2016/4kb9/4kb9_pocket.pdb
REMARK  229 active torsions:
REMARK  status: ('A' for Active; 'I' for Inactive)
REMARK    1  A    between atoms: _1  and  _3
REMARK    2  A    between atoms: _3  and  _4
REMARK    3  A    between atoms: _3  and  _6
REMARK    4  A    between atoms: _6  and  _7
REMARK    5  A    between atoms: _7  and  _8
REMARK    6  A    between atoms: _8  and  _9
REMARK    7  A    between atoms: _18  and  _20
REMARK    8  A    between atoms: _20  and  _21
REMARK    9  A    between atoms: _20  and  _23
REMARK   10  A    between atoms: _23  and  _24
REMARK   11  A    between atoms: _27  and  _29
REMARK   12  A    between atoms: _29  and  _30
REMARK   13  A    between atoms: _29  and  _32
REMARK   14  A    between atoms: _32  and  _33
REMARK   15  A    between atoms: _36  and  _38
REMARK   16  A    between atoms: _38  and  _39
REMARK   17  A    between atoms: _38  and  _41
REMARK   18  A    between atoms: _41  and  _42
REMARK   19  A    between atoms: _45  and  _47
REMARK   20  A    between atoms: _47  and  _48
REMARK   21  A    between atoms: _47  and  _50
REMARK   22  A    between atoms: _50  and  _51
REMARK   23  A    between atoms: _54  and  _56
REMARK   24  A    between atoms: _56  and  _57
REMARK   25  A    between atoms: _59  and  _61
REMARK   26  A    between atoms: _61  and  _62
REMARK   27  A    between atoms: _65  and  _67
REMARK   28  A    between atoms: _67  and  _68
REMARK   29  A    between atoms: _67  and  _70
REMARK   30  A    between atoms: _70  and  _71
REMARK   31  A    between atoms: _74  and  _76
REMARK   32  A    between atoms: _76  and  _77
REMARK   33  A    between atoms: _76  and  _79
REMARK   34  A    between atoms: _79  and  _80
REMARK   35  A    between atoms: _83  and  _85
REMARK   36  A    between atoms: _85  and  _86
REMARK   37  A    between atoms: _85  and  _88
REMARK   38  A    between atoms: _88  and  _89
REMARK   39  A    between atoms: _92  and  _94
REMARK   40  A    between atoms: _94  and  _95
REMARK   41  A    between atoms: _94  and  _97
REMARK   42  A    between atoms: _100  and  _102
REMARK   43  A    between atoms: _102  and  _103
REMARK   44  A    between atoms: _102  and  _105
REMARK   45  A    between atoms: _105  and  _106
REMARK   46  A    between atoms: _106  and  _107
REMARK   47  A    between atoms: _107  and  _108
REMARK   48  A    between atoms: _108  and  _109
REMARK   49  A    between atoms: _113  and  _115
REMARK   50  A    between atoms: _115  and  _116
REMARK   51  A    between atoms: _115  and  _118
REMARK   52  A    between atoms: _118  and  _119
REMARK   53  A    between atoms: _119  and  _120
REMARK   54  A    between atoms: _122  and  _124
REMARK   55  A    between atoms: _124  and  _125
REMARK   56  A    between atoms: _124  and  _127
REMARK   57  A    between atoms: _127  and  _128
REMARK   58  A    between atoms: _131  and  _133
REMARK   59  A    between atoms: _133  and  _134
REMARK   60  A    between atoms: _136  and  _138
REMARK   61  A    between atoms: _138  and  _139
REMARK   62  A    between atoms: _141  and  _143
REMARK   63  A    between atoms: _143  and  _144
REMARK   64  A    between atoms: _143  and  _146
REMARK   65  A    between atoms: _146  and  _147
REMARK   66  A    between atoms: _150  and  _152
REMARK   67  A    between atoms: _152  and  _153
REMARK   68  A    between atoms: _155  and  _157
REMARK   69  A    between atoms: _157  and  _158
REMARK   70  A    between atoms: _160  and  _162
REMARK   71  A    between atoms: _162  and  _163
REMARK   72  A    between atoms: _162  and  _165
REMARK   73  A    between atoms: _165  and  _166
REMARK   74  A    between atoms: _172  and  _174
REMARK   75  A    between atoms: _174  and  _175
REMARK   76  A    between atoms: _174  and  _177
REMARK   77  A    between atoms: _177  and  _178
REMARK   78  A    between atoms: _181  and  _183
REMARK   79  A    between atoms: _183  and  _184
REMARK   80  A    between atoms: _183  and  _186
REMARK   81  A    between atoms: _189  and  _191
REMARK   82  A    between atoms: _191  and  _192
REMARK   83  A    between atoms: _191  and  _194
REMARK   84  A    between atoms: _194  and  _195
REMARK   85  A    between atoms: _198  and  _200
REMARK   86  A    between atoms: _200  and  _201
REMARK   87  A    between atoms: _200  and  _203
REMARK   88  A    between atoms: _203  and  _204
REMARK   89  A    between atoms: _208  and  _209
REMARK   90  A    between atoms: _214  and  _216
REMARK   91  A    between atoms: _216  and  _217
REMARK   92  A    between atoms: _216  and  _219
REMARK   93  A    between atoms: _222  and  _224
REMARK   94  A    between atoms: _224  and  _225
REMARK   95  A    between atoms: _224  and  _227
REMARK   96  A    between atoms: _227  and  _228
REMARK   97  A    between atoms: _233  and  _235
REMARK   98  A    between atoms: _235  and  _236
REMARK   99  A    between atoms: _235  and  _238
REMARK  100  A    between atoms: _238  and  _239
REMARK  101  A    between atoms: _242  and  _244
REMARK  102  A    between atoms: _244  and  _245
REMARK  103  A    between atoms: _247  and  _249
REMARK  104  A    between atoms: _249  and  _250
REMARK  105  A    between atoms: _249  and  _252
REMARK  106  A    between atoms: _252  and  _253
REMARK  107  A    between atoms: _253  and  _254
REMARK  108  A    between atoms: _254  and  _255
REMARK  109  A    between atoms: _264  and  _266
REMARK  110  A    between atoms: _266  and  _267
REMARK  111  A    between atoms: _266  and  _269
REMARK  112  A    between atoms: _269  and  _270
REMARK  113  A    between atoms: _275  and  _277
REMARK  114  A    between atoms: _277  and  _278
REMARK  115  A    between atoms: _277  and  _280
REMARK  116  A    between atoms: _280  and  _281
REMARK  117  A    between atoms: _281  and  _282
REMARK  118  A    between atoms: _282  and  _283
REMARK  119  A    between atoms: _292  and  _294
REMARK  120  A    between atoms: _294  and  _295
REMARK  121  A    between atoms: _294  and  _297
REMARK  122  A    between atoms: _297  and  _298
REMARK  123  A    between atoms: _301  and  _303
REMARK  124  A    between atoms: _303  and  _304
REMARK  125  A    between atoms: _303  and  _306
REMARK  126  A    between atoms: _306  and  _307
REMARK  127  A    between atoms: _310  and  _312
REMARK  128  A    between atoms: _312  and  _313
REMARK  129  A    between atoms: _312  and  _315
REMARK  130  A    between atoms: _315  and  _316
REMARK  131  A    between atoms: _319  and  _321
REMARK  132  A    between atoms: _321  and  _322
REMARK  133  A    between atoms: _321  and  _324
REMARK  134  A    between atoms: _324  and  _325
REMARK  135  A    between atoms: _328  and  _330
REMARK  136  A    between atoms: _330  and  _331
REMARK  137  A    between atoms: _333  and  _335
REMARK  138  A    between atoms: _335  and  _336
REMARK  139  A    between atoms: _339  and  _341
REMARK  140  A    between atoms: _341  and  _342
REMARK  141  A    between atoms: _341  and  _344
REMARK  142  A    between atoms: _344  and  _345
REMARK  143  A    between atoms: _348  and  _350
REMARK  144  A    between atoms: _350  and  _351
REMARK  145  A    between atoms: _350  and  _353
REMARK  146  A    between atoms: _353  and  _354
REMARK  147  A    between atoms: _357  and  _359
REMARK  148  A    between atoms: _359  and  _360
REMARK  149  A    between atoms: _359  and  _362
REMARK  150  A    between atoms: _362  and  _363
REMARK  151  A    between atoms: _366  and  _368
REMARK  152  A    between atoms: _368  and  _369
REMARK  153  A    between atoms: _368  and  _371
REMARK  154  A    between atoms: _374  and  _376
REMARK  155  A    between atoms: _376  and  _377
REMARK  156  A    between atoms: _376  and  _379
REMARK  157  A    between atoms: _379  and  _380
REMARK  158  A    between atoms: _380  and  _381
REMARK  159  A    between atoms: _381  and  _382
REMARK  160  A    between atoms: _382  and  _383
REMARK  161  A    between atoms: _387  and  _389
REMARK  162  A    between atoms: _389  and  _390
REMARK  163  A    between atoms: _389  and  _392
REMARK  164  A    between atoms: _392  and  _393
REMARK  165  A    between atoms: _393  and  _394
REMARK  166  A    between atoms: _396  and  _398
REMARK  167  A    between atoms: _398  and  _399
REMARK  168  A    between atoms: _398  and  _401
REMARK  169  A    between atoms: _401  and  _402
REMARK  170  A    between atoms: _405  and  _407
REMARK  171  A    between atoms: _407  and  _408
REMARK  172  A    between atoms: _410  and  _412
REMARK  173  A    between atoms: _412  and  _413
REMARK  174  A    between atoms: _415  and  _417
REMARK  175  A    between atoms: _417  and  _418
REMARK  176  A    between atoms: _417  and  _420
REMARK  177  A    between atoms: _420  and  _421
REMARK  178  A    between atoms: _424  and  _426
REMARK  179  A    between atoms: _426  and  _427
REMARK  180  A    between atoms: _429  and  _431
REMARK  181  A    between atoms: _431  and  _432
REMARK  182  A    between atoms: _434  and  _436
REMARK  183  A    between atoms: _436  and  _437
REMARK  184  A    between atoms: _436  and  _439
REMARK  185  A    between atoms: _439  and  _440
REMARK  186  A    between atoms: _446  and  _448
REMARK  187  A    between atoms: _448  and  _449
REMARK  188  A    between atoms: _448  and  _451
REMARK  189  A    between atoms: _451  and  _452
REMARK  190  A    between atoms: _455  and  _457
REMARK  191  A    between atoms: _457  and  _458
REMARK  192  A    between atoms: _457  and  _460
REMARK  193  A    between atoms: _463  and  _465
REMARK  194  A    between atoms: _465  and  _466
REMARK  195  A    between atoms: _465  and  _468
REMARK  196  A    between atoms: _468  and  _469
REMARK  197  A    between atoms: _473  and  _474
REMARK  198  A    between atoms: _479  and  _481
REMARK  199  A    between atoms: _481  and  _482
REMARK  200  A    between atoms: _481  and  _484
REMARK  201  A    between atoms: _484  and  _485
REMARK  202  A    between atoms: _489  and  _490
REMARK  203  A    between atoms: _495  and  _497
REMARK  204  A    between atoms: _497  and  _498
REMARK  205  A    between atoms: _497  and  _500
REMARK  206  A    between atoms: _503  and  _505
REMARK  207  A    between atoms: _505  and  _506
REMARK  208  A    between atoms: _505  and  _508
REMARK  209  A    between atoms: _508  and  _509
REMARK  210  A    between atoms: _514  and  _516
REMARK  211  A    between atoms: _516  and  _517
REMARK  212  A    between atoms: _516  and  _519
REMARK  213  A    between atoms: _519  and  _520
REMARK  214  A    between atoms: _523  and  _525
REMARK  215  A    between atoms: _525  and  _526
REMARK  216  A    between atoms: _525  and  _528
REMARK  217  A    between atoms: _528  and  _529
REMARK  218  A    between atoms: _532  and  _534
REMARK  219  A    between atoms: _534  and  _535
REMARK  220  A    between atoms: _537  and  _539
REMARK  221  A    between atoms: _539  and  _540
REMARK  222  A    between atoms: _539  and  _542
REMARK  223  A    between atoms: _542  and  _543
REMARK  224  A    between atoms: _543  and  _544
REMARK  225  A    between atoms: _544  and  _545
REMARK  226  A    between atoms: _554  and  _556
REMARK  227  A    between atoms: _556  and  _557
REMARK  228  A    between atoms: _556  and  _559
REMARK  229  A    between atoms: _559  and  _560
REMARK                            x       y       z     vdW  Elec       q    Type
REMARK                         _______ _______ _______ _____ _____    ______ ____
ROOT
ATOM      1  O   HOH     1      21.142  26.808  12.948  0.00  0.00    +0.000 OA
ENDROOT
TORSDOF 0
REMARK  Name = ../refined-set-2016/4kb9/4kb9_pocket.pdb
REMARK  229 active torsions:
REMARK  status: ('A' for Active; 'I' for Inactive)
REMARK    1  A    between atoms: _1  and  _3
REMARK    2  A    between atoms: _3  and  _4
REMARK    3  A    between atoms: _3  and  _6
REMARK    4  A    between atoms: _6  and  _7
REMARK    5  A    between atoms: _7  and  _8
REMARK    6  A    between atoms: _8  and  _9
REMARK    7  A    between atoms: _18  and  _20
REMARK    8  A    between atoms: _20  and  _21
REMARK    9  A    between atoms: _20  and  _23
REMARK   10  A    between atoms: _23  and  _24
REMARK   11  A    between atoms: _27  and  _29
REMARK   12  A    between atoms: _29  and  _30
REMARK   13  A    between atoms: _29  and  _32
REMARK   14  A    between atoms: _32  and  _33
REMARK   15  A    between atoms: _36  and  _38
REMARK   16  A    between atoms: _38  and  _39
REMARK   17  A    between atoms: _38  and  _41
REMARK   18  A    between atoms: _41  and  _42
REMARK   19  A    between atoms: _45  and  _47
REMARK   20  A    between atoms: _47  and  _48
REMARK   21  A    between atoms: _47  and  _50
REMARK   22  A    between atoms: _50  and  _51
REMARK   23  A    between atoms: _54  and  _56
REMARK   24  A    between atoms: _56  and  _57
REMARK   25  A    between atoms: _59  and  _61
REMARK   26  A    between atoms: _61  and  _62
REMARK   27  A    between atoms: _65  and  _67
REMARK   28  A    between atoms: _67  and  _68
REMARK   29  A    between atoms: _67  and  _70
REMARK   30  A    between atoms: _70  and  _71
REMARK   31  A    between atoms: _74  and  _76
REMARK   32  A    between atoms: _76  and  _77
REMARK   33  A    between atoms: _76  and  _79
REMARK   34  A    between atoms: _79  and  _80
REMARK   35  A    between atoms: _83  and  _85
REMARK   36  A    between atoms: _85  and  _86
REMARK   37  A    between atoms: _85  and  _88
REMARK   38  A    between atoms: _88  and  _89
REMARK   39  A    between atoms: _92  and  _94
REMARK   40  A    between atoms: _94  and  _95
REMARK   41  A    between atoms: _94  and  _97
REMARK   42  A    between atoms: _100  and  _102
REMARK   43  A    between atoms: _102  and  _103
REMARK   44  A    between atoms: _102  and  _105
REMARK   45  A    between atoms: _105  and  _106
REMARK   46  A    between atoms: _106  and  _107
REMARK   47  A    between atoms: _107  and  _108
REMARK   48  A    between atoms: _108  and  _109
REMARK   49  A    between atoms: _113  and  _115
REMARK   50  A    between atoms: _115  and  _116
REMARK   51  A    between atoms: _115  and  _118
REMARK   52  A    between atoms: _118  and  _119
REMARK   53  A    between atoms: _119  and  _120
REMARK   54  A    between atoms: _122  and  _124
REMARK   55  A    between atoms: _124  and  _125
REMARK   56  A    between atoms: _124  and  _127
REMARK   57  A    between atoms: _127  and  _128
REMARK   58  A    between atoms: _131  and  _133
REMARK   59  A    between atoms: _133  and  _134
REMARK   60  A    between atoms: _136  and  _138
REMARK   61  A    between atoms: _138  and  _139
REMARK   62  A    between atoms: _141  and  _143
REMARK   63  A    between atoms: _143  and  _144
REMARK   64  A    between atoms: _143  and  _146
REMARK   65  A    between atoms: _146  and  _147
REMARK   66  A    between atoms: _150  and  _152
REMARK   67  A    between atoms: _152  and  _153
REMARK   68  A    between atoms: _155  and  _157
REMARK   69  A    between atoms: _157  and  _158
REMARK   70  A    between atoms: _160  and  _162
REMARK   71  A    between atoms: _162  and  _163
REMARK   72  A    between atoms: _162  and  _165
REMARK   73  A    between atoms: _165  and  _166
REMARK   74  A    between atoms: _172  and  _174
REMARK   75  A    between atoms: _174  and  _175
REMARK   76  A    between atoms: _174  and  _177
REMARK   77  A    between atoms: _177  and  _178
REMARK   78  A    between atoms: _181  and  _183
REMARK   79  A    between atoms: _183  and  _184
REMARK   80  A    between atoms: _183  and  _186
REMARK   81  A    between atoms: _189  and  _191
REMARK   82  A    between atoms: _191  and  _192
REMARK   83  A    between atoms: _191  and  _194
REMARK   84  A    between atoms: _194  and  _195
REMARK   85  A    between atoms: _198  and  _200
REMARK   86  A    between atoms: _200  and  _201
REMARK   87  A    between atoms: _200  and  _203
REMARK   88  A    between atoms: _203  and  _204
REMARK   89  A    between atoms: _208  and  _209
REMARK   90  A    between atoms: _214  and  _216
REMARK   91  A    between atoms: _216  and  _217
REMARK   92  A    between atoms: _216  and  _219
REMARK   93  A    between atoms: _222  and  _224
REMARK   94  A    between atoms: _224  and  _225
REMARK   95  A    between atoms: _224  and  _227
REMARK   96  A    between atoms: _227  and  _228
REMARK   97  A    between atoms: _233  and  _235
REMARK   98  A    between atoms: _235  and  _236
REMARK   99  A    between atoms: _235  and  _238
REMARK  100  A    between atoms: _238  and  _239
REMARK  101  A    between atoms: _242  and  _244
REMARK  102  A    between atoms: _244  and  _245
REMARK  103  A    between atoms: _247  and  _249
REMARK  104  A    between atoms: _249  and  _250
REMARK  105  A    between atoms: _249  and  _252
REMARK  106  A    between atoms: _252  and  _253
REMARK  107  A    between atoms: _253  and  _254
REMARK  108  A    between atoms: _254  and  _255
REMARK  109  A    between atoms: _264  and  _266
REMARK  110  A    between atoms: _266  and  _267
REMARK  111  A    between atoms: _266  and  _269
REMARK  112  A    between atoms: _269  and  _270
REMARK  113  A    between atoms: _275  and  _277
REMARK  114  A    between atoms: _277  and  _278
REMARK  115  A    between atoms: _277  and  _280
REMARK  116  A    between atoms: _280  and  _281
REMARK  117  A    between atoms: _281  and  _282
REMARK  118  A    between atoms: _282  and  _283
REMARK  119  A    between atoms: _292  and  _294
REMARK  120  A    between atoms: _294  and  _295
REMARK  121  A    between atoms: _294  and  _297
REMARK  122  A    between atoms: _297  and  _298
REMARK  123  A    between atoms: _301  and  _303
REMARK  124  A    between atoms: _303  and  _304
REMARK  125  A    between atoms: _303  and  _306
REMARK  126  A    between atoms: _306  and  _307
REMARK  127  A    between atoms: _310  and  _312
REMARK  128  A    between atoms: _312  and  _313
REMARK  129  A    between atoms: _312  and  _315
REMARK  130  A    between atoms: _315  and  _316
REMARK  131  A    between atoms: _319  and  _321
REMARK  132  A    between atoms: _321  and  _322
REMARK  133  A    between atoms: _321  and  _324
REMARK  134  A    between atoms: _324  and  _325
REMARK  135  A    between atoms: _328  and  _330
REMARK  136  A    between atoms: _330  and  _331
REMARK  137  A    between atoms: _333  and  _335
REMARK  138  A    between atoms: _335  and  _336
REMARK  139  A    between atoms: _339  and  _341
REMARK  140  A    between atoms: _341  and  _342
REMARK  141  A    between atoms: _341  and  _344
REMARK  142  A    between atoms: _344  and  _345
REMARK  143  A    between atoms: _348  and  _350
REMARK  144  A    between atoms: _350  and  _351
REMARK  145  A    between atoms: _350  and  _353
REMARK  146  A    between atoms: _353  and  _354
REMARK  147  A    between atoms: _357  and  _359
REMARK  148  A    between atoms: _359  and  _360
REMARK  149  A    between atoms: _359  and  _362
REMARK  150  A    between atoms: _362  and  _363
REMARK  151  A    between atoms: _366  and  _368
REMARK  152  A    between atoms: _368  and  _369
REMARK  153  A    between atoms: _368  and  _371
REMARK  154  A    between atoms: _374  and  _376
REMARK  155  A    between atoms: _376  and  _377
REMARK  156  A    between atoms: _376  and  _379
REMARK  157  A    between atoms: _379  and  _380
REMARK  158  A    between atoms: _380  and  _381
REMARK  159  A    between atoms: _381  and  _382
REMARK  160  A    between atoms: _382  and  _383
REMARK  161  A    between atoms: _387  and  _389
REMARK  162  A    between atoms: _389  and  _390
REMARK  163  A    between atoms: _389  and  _392
REMARK  164  A    between atoms: _392  and  _393
REMARK  165  A    between atoms: _393  and  _394
REMARK  166  A    between atoms: _396  and  _398
REMARK  167  A    between atoms: _398  and  _399
REMARK  168  A    between atoms: _398  and  _401
REMARK  169  A    between atoms: _401  and  _402
REMARK  170  A    between atoms: _405  and  _407
REMARK  171  A    between atoms: _407  and  _408
REMARK  172  A    between atoms: _410  and  _412
REMARK  173  A    between atoms: _412  and  _413
REMARK  174  A    between atoms: _415  and  _417
REMARK  175  A    between atoms: _417  and  _418
REMARK  176  A    between atoms: _417  and  _420
REMARK  177  A    between atoms: _420  and  _421
REMARK  178  A    between atoms: _424  and  _426
REMARK  179  A    between atoms: _426  and  _427
REMARK  180  A    between atoms: _429  and  _431
REMARK  181  A    between atoms: _431  and  _432
REMARK  182  A    between atoms: _434  and  _436
REMARK  183  A    between atoms: _436  and  _437
REMARK  184  A    between atoms: _436  and  _439
REMARK  185  A    between atoms: _439  and  _440
REMARK  186  A    between atoms: _446  and  _448
REMARK  187  A    between atoms: _448  and  _449
REMARK  188  A    between atoms: _448  and  _451
REMARK  189  A    between atoms: _451  and  _452
REMARK  190  A    between atoms: _455  and  _457
REMARK  191  A    between atoms: _457  and  _458
REMARK  192  A    between atoms: _457  and  _460
REMARK  193  A    between atoms: _463  and  _465
REMARK  194  A    between atoms: _465  and  _466
REMARK  195  A    between atoms: _465  and  _468
REMARK  196  A    between atoms: _468  and  _469
REMARK  197  A    between atoms: _473  and  _474
REMARK  198  A    between atoms: _479  and  _481
REMARK  199  A    between atoms: _481  and  _482
REMARK  200  A    between atoms: _481  and  _484
REMARK  201  A    between atoms: _484  and  _485
REMARK  202  A    between atoms: _489  and  _490
REMARK  203  A    between atoms: _495  and  _497
REMARK  204  A    between atoms: _497  and  _498
REMARK  205  A    between atoms: _497  and  _500
REMARK  206  A    between atoms: _503  and  _505
REMARK  207  A    between atoms: _505  and  _506
REMARK  208  A    between atoms: _505  and  _508
REMARK  209  A    between atoms: _508  and  _509
REMARK  210  A    between atoms: _514  and  _516
REMARK  211  A    between atoms: _516  and  _517
REMARK  212  A    between atoms: _516  and  _519
REMARK  213  A    between atoms: _519  and  _520
REMARK  214  A    between atoms: _523  and  _525
REMARK  215  A    between atoms: _525  and  _526
REMARK  216  A    between atoms: _525  and  _528
REMARK  217  A    between atoms: _528  and  _529
REMARK  218  A    between atoms: _532  and  _534
REMARK  219  A    between atoms: _534  and  _535
REMARK  220  A    between atoms: _537  and  _539
REMARK  221  A    between atoms: _539  and  _540
REMARK  222  A    between atoms: _539  and  _542
REMARK  223  A    between atoms: _542  and  _543
REMARK  224  A    between atoms: _543  and  _544
REMARK  225  A    between atoms: _544  and  _545
REMARK  226  A    between atoms: _554  and  _556
REMARK  227  A    between atoms: _556  and  _557
REMARK  228  A    between atoms: _556  and  _559
REMARK  229  A    between atoms: _559  and  _560
REMARK                            x       y       z     vdW  Elec       q    Type
REMARK                         _______ _______ _______ _____ _____    ______ ____
ROOT
ATOM      1  O   HOH     1       3.666   9.196  11.333  0.00  0.00    +0.000 OA
ENDROOT
TORSDOF 0
REMARK  Name = ../refined-set-2016/4kb9/4kb9_pocket.pdb
REMARK  229 active torsions:
REMARK  status: ('A' for Active; 'I' for Inactive)
REMARK    1  A    between atoms: _1  and  _3
REMARK    2  A    between atoms: _3  and  _4
REMARK    3  A    between atoms: _3  and  _6
REMARK    4  A    between atoms: _6  and  _7
REMARK    5  A    between atoms: _7  and  _8
REMARK    6  A    between atoms: _8  and  _9
REMARK    7  A    between atoms: _18  and  _20
REMARK    8  A    between atoms: _20  and  _21
REMARK    9  A    between atoms: _20  and  _23
REMARK   10  A    between atoms: _23  and  _24
REMARK   11  A    between atoms: _27  and  _29
REMARK   12  A    between atoms: _29  and  _30
REMARK   13  A    between atoms: _29  and  _32
REMARK   14  A    between atoms: _32  and  _33
REMARK   15  A    between atoms: _36  and  _38
REMARK   16  A    between atoms: _38  and  _39
REMARK   17  A    between atoms: _38  and  _41
REMARK   18  A    between atoms: _41  and  _42
REMARK   19  A    between atoms: _45  and  _47
REMARK   20  A    between atoms: _47  and  _48
REMARK   21  A    between atoms: _47  and  _50
REMARK   22  A    between atoms: _50  and  _51
REMARK   23  A    between atoms: _54  and  _56
REMARK   24  A    between atoms: _56  and  _57
REMARK   25  A    between atoms: _59  and  _61
REMARK   26  A    between atoms: _61  and  _62
REMARK   27  A    between atoms: _65  and  _67
REMARK   28  A    between atoms: _67  and  _68
REMARK   29  A    between atoms: _67  and  _70
REMARK   30  A    between atoms: _70  and  _71
REMARK   31  A    between atoms: _74  and  _76
REMARK   32  A    between atoms: _76  and  _77
REMARK   33  A    between atoms: _76  and  _79
REMARK   34  A    between atoms: _79  and  _80
REMARK   35  A    between atoms: _83  and  _85
REMARK   36  A    between atoms: _85  and  _86
REMARK   37  A    between atoms: _85  and  _88
REMARK   38  A    between atoms: _88  and  _89
REMARK   39  A    between atoms: _92  and  _94
REMARK   40  A    between atoms: _94  and  _95
REMARK   41  A    between atoms: _94  and  _97
REMARK   42  A    between atoms: _100  and  _102
REMARK   43  A    between atoms: _102  and  _103
REMARK   44  A    between atoms: _102  and  _105
REMARK   45  A    between atoms: _105  and  _106
REMARK   46  A    between atoms: _106  and  _107
REMARK   47  A    between atoms: _107  and  _108
REMARK   48  A    between atoms: _108  and  _109
REMARK   49  A    between atoms: _113  and  _115
REMARK   50  A    between atoms: _115  and  _116
REMARK   51  A    between atoms: _115  and  _118
REMARK   52  A    between atoms: _118  and  _119
REMARK   53  A    between atoms: _119  and  _120
REMARK   54  A    between atoms: _122  and  _124
REMARK   55  A    between atoms: _124  and  _125
REMARK   56  A    between atoms: _124  and  _127
REMARK   57  A    between atoms: _127  and  _128
REMARK   58  A    between atoms: _131  and  _133
REMARK   59  A    between atoms: _133  and  _134
REMARK   60  A    between atoms: _136  and  _138
REMARK   61  A    between atoms: _138  and  _139
REMARK   62  A    between atoms: _141  and  _143
REMARK   63  A    between atoms: _143  and  _144
REMARK   64  A    between atoms: _143  and  _146
REMARK   65  A    between atoms: _146  and  _147
REMARK   66  A    between atoms: _150  and  _152
REMARK   67  A    between atoms: _152  and  _153
REMARK   68  A    between atoms: _155  and  _157
REMARK   69  A    between atoms: _157  and  _158
REMARK   70  A    between atoms: _160  and  _162
REMARK   71  A    between atoms: _162  and  _163
REMARK   72  A    between atoms: _162  and  _165
REMARK   73  A    between atoms: _165  and  _166
REMARK   74  A    between atoms: _172  and  _174
REMARK   75  A    between atoms: _174  and  _175
REMARK   76  A    between atoms: _174  and  _177
REMARK   77  A    between atoms: _177  and  _178
REMARK   78  A    between atoms: _181  and  _183
REMARK   79  A    between atoms: _183  and  _184
REMARK   80  A    between atoms: _183  and  _186
REMARK   81  A    between atoms: _189  and  _191
REMARK   82  A    between atoms: _191  and  _192
REMARK   83  A    between atoms: _191  and  _194
REMARK   84  A    between atoms: _194  and  _195
REMARK   85  A    between atoms: _198  and  _200
REMARK   86  A    between atoms: _200  and  _201
REMARK   87  A    between atoms: _200  and  _203
REMARK   88  A    between atoms: _203  and  _204
REMARK   89  A    between atoms: _208  and  _209
REMARK   90  A    between atoms: _214  and  _216
REMARK   91  A    between atoms: _216  and  _217
REMARK   92  A    between atoms: _216  and  _219
REMARK   93  A    between atoms: _222  and  _224
REMARK   94  A    between atoms: _224  and  _225
REMARK   95  A    between atoms: _224  and  _227
REMARK   96  A    between atoms: _227  and  _228
REMARK   97  A    between atoms: _233  and  _235
REMARK   98  A    between atoms: _235  and  _236
REMARK   99  A    between atoms: _235  and  _238
REMARK  100  A    between atoms: _238  and  _239
REMARK  101  A    between atoms: _242  and  _244
REMARK  102  A    between atoms: _244  and  _245
REMARK  103  A    between atoms: _247  and  _249
REMARK  104  A    between atoms: _249  and  _250
REMARK  105  A    between atoms: _249  and  _252
REMARK  106  A    between atoms: _252  and  _253
REMARK  107  A    between atoms: _253  and  _254
REMARK  108  A    between atoms: _254  and  _255
REMARK  109  A    between atoms: _264  and  _266
REMARK  110  A    between atoms: _266  and  _267
REMARK  111  A    between atoms: _266  and  _269
REMARK  112  A    between atoms: _269  and  _270
REMARK  113  A    between atoms: _275  and  _277
REMARK  114  A    between atoms: _277  and  _278
REMARK  115  A    between atoms: _277  and  _280
REMARK  116  A    between atoms: _280  and  _281
REMARK  117  A    between atoms: _281  and  _282
REMARK  118  A    between atoms: _282  and  _283
REMARK  119  A    between atoms: _292  and  _294
REMARK  120  A    between atoms: _294  and  _295
REMARK  121  A    between atoms: _294  and  _297
REMARK  122  A    between atoms: _297  and  _298
REMARK  123  A    between atoms: _301  and  _303
REMARK  124  A    between atoms: _303  and  _304
REMARK  125  A    between atoms: _303  and  _306
REMARK  126  A    between atoms: _306  and  _307
REMARK  127  A    between atoms: _310  and  _312
REMARK  128  A    between atoms: _312  and  _313
REMARK  129  A    between atoms: _312  and  _315
REMARK  130  A    between atoms: _315  and  _316
REMARK  131  A    between atoms: _319  and  _321
REMARK  132  A    between atoms: _321  and  _322
REMARK  133  A    between atoms: _321  and  _324
REMARK  134  A    between atoms: _324  and  _325
REMARK  135  A    between atoms: _328  and  _330
REMARK  136  A    between atoms: _330  and  _331
REMARK  137  A    between atoms: _333  and  _335
REMARK  138  A    between atoms: _335  and  _336
REMARK  139  A    between atoms: _339  and  _341
REMARK  140  A    between atoms: _341  and  _342
REMARK  141  A    between atoms: _341  and  _344
REMARK  142  A    between atoms: _344  and  _345
REMARK  143  A    between atoms: _348  and  _350
REMARK  144  A    between atoms: _350  and  _351
REMARK  145  A    between atoms: _350  and  _353
REMARK  146  A    between atoms: _353  and  _354
REMARK  147  A    between atoms: _357  and  _359
REMARK  148  A    between atoms: _359  and  _360
REMARK  149  A    between atoms: _359  and  _362
REMARK  150  A    between atoms: _362  and  _363
REMARK  151  A    between atoms: _366  and  _368
REMARK  152  A    between atoms: _368  and  _369
REMARK  153  A    between atoms: _368  and  _371
REMARK  154  A    between atoms: _374  and  _376
REMARK  155  A    between atoms: _376  and  _377
REMARK  156  A    between atoms: _376  and  _379
REMARK  157  A    between atoms: _379  and  _380
REMARK  158  A    between atoms: _380  and  _381
REMARK  159  A    between atoms: _381  and  _382
REMARK  160  A    between atoms: _382  and  _383
REMARK  161  A    between atoms: _387  and  _389
REMARK  162  A    between atoms: _389  and  _390
REMARK  163  A    between atoms: _389  and  _392
REMARK  164  A    between atoms: _392  and  _393
REMARK  165  A    between atoms: _393  and  _394
REMARK  166  A    between atoms: _396  and  _398
REMARK  167  A    between atoms: _398  and  _399
REMARK  168  A    between atoms: _398  and  _401
REMARK  169  A    between atoms: _401  and  _402
REMARK  170  A    between atoms: _405  and  _407
REMARK  171  A    between atoms: _407  and  _408
REMARK  172  A    between atoms: _410  and  _412
REMARK  173  A    between atoms: _412  and  _413
REMARK  174  A    between atoms: _415  and  _417
REMARK  175  A    between atoms: _417  and  _418
REMARK  176  A    between atoms: _417  and  _420
REMARK  177  A    between atoms: _420  and  _421
REMARK  178  A    between atoms: _424  and  _426
REMARK  179  A    between atoms: _426  and  _427
REMARK  180  A    between atoms: _429  and  _431
REMARK  181  A    between atoms: _431  and  _432
REMARK  182  A    between atoms: _434  and  _436
REMARK  183  A    between atoms: _436  and  _437
REMARK  184  A    between atoms: _436  and  _439
REMARK  185  A    between atoms: _439  and  _440
REMARK  186  A    between atoms: _446  and  _448
REMARK  187  A    between atoms: _448  and  _449
REMARK  188  A    between atoms: _448  and  _451
REMARK  189  A    between atoms: _451  and  _452
REMARK  190  A    between atoms: _455  and  _457
REMARK  191  A    between atoms: _457  and  _458
REMARK  192  A    between atoms: _457  and  _460
REMARK  193  A    between atoms: _463  and  _465
REMARK  194  A    between atoms: _465  and  _466
REMARK  195  A    between atoms: _465  and  _468
REMARK  196  A    between atoms: _468  and  _469
REMARK  197  A    between atoms: _473  and  _474
REMARK  198  A    between atoms: _479  and  _481
REMARK  199  A    between atoms: _481  and  _482
REMARK  200  A    between atoms: _481  and  _484
REMARK  201  A    between atoms: _484  and  _485
REMARK  202  A    between atoms: _489  and  _490
REMARK  203  A    between atoms: _495  and  _497
REMARK  204  A    between atoms: _497  and  _498
REMARK  205  A    between atoms: _497  and  _500
REMARK  206  A    between atoms: _503  and  _505
REMARK  207  A    between atoms: _505  and  _506
REMARK  208  A    between atoms: _505  and  _508
REMARK  209  A    between atoms: _508  and  _509
REMARK  210  A    between atoms: _514  and  _516
REMARK  211  A    between atoms: _516  and  _517
REMARK  212  A    between atoms: _516  and  _519
REMARK  213  A    between atoms: _519  and  _520
REMARK  214  A    between atoms: _523  and  _525
REMARK  215  A    between atoms: _525  and  _526
REMARK  216  A    between atoms: _525  and  _528
REMARK  217  A    between atoms: _528  and  _529
REMARK  218  A    between atoms: _532  and  _534
REMARK  219  A    between atoms: _534  and  _535
REMARK  220  A    between atoms: _537  and  _539
REMARK  221  A    between atoms: _539  and  _540
REMARK  222  A    between atoms: _539  and  _542
REMARK  223  A    between atoms: _542  and  _543
REMARK  224  A    between atoms: _543  and  _544
REMARK  225  A    between atoms: _544  and  _545
REMARK  226  A    between atoms: _554  and  _556
REMARK  227  A    between atoms: _556  and  _557
REMARK  228  A    between atoms: _556  and  _559
REMARK  229  A    between atoms: _559  and  _560
REMARK                            x       y       z     vdW  Elec       q    Type
REMARK                         _______ _______ _______ _____ _____    ______ ____
ROOT
ATOM      1  O   HOH     1      21.883  19.862   8.720  0.00  0.00    +0.000 OA
ENDROOT
TORSDOF 0
REMARK  Name = ../refined-set-2016/4kb9/4kb9_pocket.pdb
REMARK  229 active torsions:
REMARK  status: ('A' for Active; 'I' for Inactive)
REMARK    1  A    between atoms: _1  and  _3
REMARK    2  A    between atoms: _3  and  _4
REMARK    3  A    between atoms: _3  and  _6
REMARK    4  A    between atoms: _6  and  _7
REMARK    5  A    between atoms: _7  and  _8
REMARK    6  A    between atoms: _8  and  _9
REMARK    7  A    between atoms: _18  and  _20
REMARK    8  A    between atoms: _20  and  _21
REMARK    9  A    between atoms: _20  and  _23
REMARK   10  A    between atoms: _23  and  _24
REMARK   11  A    between atoms: _27  and  _29
REMARK   12  A    between atoms: _29  and  _30
REMARK   13  A    between atoms: _29  and  _32
REMARK   14  A    between atoms: _32  and  _33
REMARK   15  A    between atoms: _36  and  _38
REMARK   16  A    between atoms: _38  and  _39
REMARK   17  A    between atoms: _38  and  _41
REMARK   18  A    between atoms: _41  and  _42
REMARK   19  A    between atoms: _45  and  _47
REMARK   20  A    between atoms: _47  and  _48
REMARK   21  A    between atoms: _47  and  _50
REMARK   22  A    between atoms: _50  and  _51
REMARK   23  A    between atoms: _54  and  _56
REMARK   24  A    between atoms: _56  and  _57
REMARK   25  A    between atoms: _59  and  _61
REMARK   26  A    between atoms: _61  and  _62
REMARK   27  A    between atoms: _65  and  _67
REMARK   28  A    between atoms: _67  and  _68
REMARK   29  A    between atoms: _67  and  _70
REMARK   30  A    between atoms: _70  and  _71
REMARK   31  A    between atoms: _74  and  _76
REMARK   32  A    between atoms: _76  and  _77
REMARK   33  A    between atoms: _76  and  _79
REMARK   34  A    between atoms: _79  and  _80
REMARK   35  A    between atoms: _83  and  _85
REMARK   36  A    between atoms: _85  and  _86
REMARK   37  A    between atoms: _85  and  _88
REMARK   38  A    between atoms: _88  and  _89
REMARK   39  A    between atoms: _92  and  _94
REMARK   40  A    between atoms: _94  and  _95
REMARK   41  A    between atoms: _94  and  _97
REMARK   42  A    between atoms: _100  and  _102
REMARK   43  A    between atoms: _102  and  _103
REMARK   44  A    between atoms: _102  and  _105
REMARK   45  A    between atoms: _105  and  _106
REMARK   46  A    between atoms: _106  and  _107
REMARK   47  A    between atoms: _107  and  _108
REMARK   48  A    between atoms: _108  and  _109
REMARK   49  A    between atoms: _113  and  _115
REMARK   50  A    between atoms: _115  and  _116
REMARK   51  A    between atoms: _115  and  _118
REMARK   52  A    between atoms: _118  and  _119
REMARK   53  A    between atoms: _119  and  _120
REMARK   54  A    between atoms: _122  and  _124
REMARK   55  A    between atoms: _124  and  _125
REMARK   56  A    between atoms: _124  and  _127
REMARK   57  A    between atoms: _127  and  _128
REMARK   58  A    between atoms: _131  and  _133
REMARK   59  A    between atoms: _133  and  _134
REMARK   60  A    between atoms: _136  and  _138
REMARK   61  A    between atoms: _138  and  _139
REMARK   62  A    between atoms: _141  and  _143
REMARK   63  A    between atoms: _143  and  _144
REMARK   64  A    between atoms: _143  and  _146
REMARK   65  A    between atoms: _146  and  _147
REMARK   66  A    between atoms: _150  and  _152
REMARK   67  A    between atoms: _152  and  _153
REMARK   68  A    between atoms: _155  and  _157
REMARK   69  A    between atoms: _157  and  _158
REMARK   70  A    between atoms: _160  and  _162
REMARK   71  A    between atoms: _162  and  _163
REMARK   72  A    between atoms: _162  and  _165
REMARK   73  A    between atoms: _165  and  _166
REMARK   74  A    between atoms: _172  and  _174
REMARK   75  A    between atoms: _174  and  _175
REMARK   76  A    between atoms: _174  and  _177
REMARK   77  A    between atoms: _177  and  _178
REMARK   78  A    between atoms: _181  and  _183
REMARK   79  A    between atoms: _183  and  _184
REMARK   80  A    between atoms: _183  and  _186
REMARK   81  A    between atoms: _189  and  _191
REMARK   82  A    between atoms: _191  and  _192
REMARK   83  A    between atoms: _191  and  _194
REMARK   84  A    between atoms: _194  and  _195
REMARK   85  A    between atoms: _198  and  _200
REMARK   86  A    between atoms: _200  and  _201
REMARK   87  A    between atoms: _200  and  _203
REMARK   88  A    between atoms: _203  and  _204
REMARK   89  A    between atoms: _208  and  _209
REMARK   90  A    between atoms: _214  and  _216
REMARK   91  A    between atoms: _216  and  _217
REMARK   92  A    between atoms: _216  and  _219
REMARK   93  A    between atoms: _222  and  _224
REMARK   94  A    between atoms: _224  and  _225
REMARK   95  A    between atoms: _224  and  _227
REMARK   96  A    between atoms: _227  and  _228
REMARK   97  A    between atoms: _233  and  _235
REMARK   98  A    between atoms: _235  and  _236
REMARK   99  A    between atoms: _235  and  _238
REMARK  100  A    between atoms: _238  and  _239
REMARK  101  A    between atoms: _242  and  _244
REMARK  102  A    between atoms: _244  and  _245
REMARK  103  A    between atoms: _247  and  _249
REMARK  104  A    between atoms: _249  and  _250
REMARK  105  A    between atoms: _249  and  _252
REMARK  106  A    between atoms: _252  and  _253
REMARK  107  A    between atoms: _253  and  _254
REMARK  108  A    between atoms: _254  and  _255
REMARK  109  A    between atoms: _264  and  _266
REMARK  110  A    between atoms: _266  and  _267
REMARK  111  A    between atoms: _266  and  _269
REMARK  112  A    between atoms: _269  and  _270
REMARK  113  A    between atoms: _275  and  _277
REMARK  114  A    between atoms: _277  and  _278
REMARK  115  A    between atoms: _277  and  _280
REMARK  116  A    between atoms: _280  and  _281
REMARK  117  A    between atoms: _281  and  _282
REMARK  118  A    between atoms: _282  and  _283
REMARK  119  A    between atoms: _292  and  _294
REMARK  120  A    between atoms: _294  and  _295
REMARK  121  A    between atoms: _294  and  _297
REMARK  122  A    between atoms: _297  and  _298
REMARK  123  A    between atoms: _301  and  _303
REMARK  124  A    between atoms: _303  and  _304
REMARK  125  A    between atoms: _303  and  _306
REMARK  126  A    between atoms: _306  and  _307
REMARK  127  A    between atoms: _310  and  _312
REMARK  128  A    between atoms: _312  and  _313
REMARK  129  A    between atoms: _312  and  _315
REMARK  130  A    between atoms: _315  and  _316
REMARK  131  A    between atoms: _319  and  _321
REMARK  132  A    between atoms: _321  and  _322
REMARK  133  A    between atoms: _321  and  _324
REMARK  134  A    between atoms: _324  and  _325
REMARK  135  A    between atoms: _328  and  _330
REMARK  136  A    between atoms: _330  and  _331
REMARK  137  A    between atoms: _333  and  _335
REMARK  138  A    between atoms: _335  and  _336
REMARK  139  A    between atoms: _339  and  _341
REMARK  140  A    between atoms: _341  and  _342
REMARK  141  A    between atoms: _341  and  _344
REMARK  142  A    between atoms: _344  and  _345
REMARK  143  A    between atoms: _348  and  _350
REMARK  144  A    between atoms: _350  and  _351
REMARK  145  A    between atoms: _350  and  _353
REMARK  146  A    between atoms: _353  and  _354
REMARK  147  A    between atoms: _357  and  _359
REMARK  148  A    between atoms: _359  and  _360
REMARK  149  A    between atoms: _359  and  _362
REMARK  150  A    between atoms: _362  and  _363
REMARK  151  A    between atoms: _366  and  _368
REMARK  152  A    between atoms: _368  and  _369
REMARK  153  A    between atoms: _368  and  _371
REMARK  154  A    between atoms: _374  and  _376
REMARK  155  A    between atoms: _376  and  _377
REMARK  156  A    between atoms: _376  and  _379
REMARK  157  A    between atoms: _379  and  _380
REMARK  158  A    between atoms: _380  and  _381
REMARK  159  A    between atoms: _381  and  _382
REMARK  160  A    between atoms: _382  and  _383
REMARK  161  A    between atoms: _387  and  _389
REMARK  162  A    between atoms: _389  and  _390
REMARK  163  A    between atoms: _389  and  _392
REMARK  164  A    between atoms: _392  and  _393
REMARK  165  A    between atoms: _393  and  _394
REMARK  166  A    between atoms: _396  and  _398
REMARK  167  A    between atoms: _398  and  _399
REMARK  168  A    between atoms: _398  and  _401
REMARK  169  A    between atoms: _401  and  _402
REMARK  170  A    between atoms: _405  and  _407
REMARK  171  A    between atoms: _407  and  _408
REMARK  172  A    between atoms: _410  and  _412
REMARK  173  A    between atoms: _412  and  _413
REMARK  174  A    between atoms: _415  and  _417
REMARK  175  A    between atoms: _417  and  _418
REMARK  176  A    between atoms: _417  and  _420
REMARK  177  A    between atoms: _420  and  _421
REMARK  178  A    between atoms: _424  and  _426
REMARK  179  A    between atoms: _426  and  _427
REMARK  180  A    between atoms: _429  and  _431
REMARK  181  A    between atoms: _431  and  _432
REMARK  182  A    between atoms: _434  and  _436
REMARK  183  A    between atoms: _436  and  _437
REMARK  184  A    between atoms: _436  and  _439
REMARK  185  A    between atoms: _439  and  _440
REMARK  186  A    between atoms: _446  and  _448
REMARK  187  A    between atoms: _448  and  _449
REMARK  188  A    between atoms: _448  and  _451
REMARK  189  A    between atoms: _451  and  _452
REMARK  190  A    between atoms: _455  and  _457
REMARK  191  A    between atoms: _457  and  _458
REMARK  192  A    between atoms: _457  and  _460
REMARK  193  A    between atoms: _463  and  _465
REMARK  194  A    between atoms: _465  and  _466
REMARK  195  A    between atoms: _465  and  _468
REMARK  196  A    between atoms: _468  and  _469
REMARK  197  A    between atoms: _473  and  _474
REMARK  198  A    between atoms: _479  and  _481
REMARK  199  A    between atoms: _481  and  _482
REMARK  200  A    between atoms: _481  and  _484
REMARK  201  A    between atoms: _484  and  _485
REMARK  202  A    between atoms: _489  and  _490
REMARK  203  A    between atoms: _495  and  _497
REMARK  204  A    between atoms: _497  and  _498
REMARK  205  A    between atoms: _497  and  _500
REMARK  206  A    between atoms: _503  and  _505
REMARK  207  A    between atoms: _505  and  _506
REMARK  208  A    between atoms: _505  and  _508
REMARK  209  A    between atoms: _508  and  _509
REMARK  210  A    between atoms: _514  and  _516
REMARK  211  A    between atoms: _516  and  _517
REMARK  212  A    between atoms: _516  and  _519
REMARK  213  A    between atoms: _519  and  _520
REMARK  214  A    between atoms: _523  and  _525
REMARK  215  A    between atoms: _525  and  _526
REMARK  216  A    between atoms: _525  and  _528
REMARK  217  A    between atoms: _528  and  _529
REMARK  218  A    between atoms: _532  and  _534
REMARK  219  A    between atoms: _534  and  _535
REMARK  220  A    between atoms: _537  and  _539
REMARK  221  A    between atoms: _539  and  _540
REMARK  222  A    between atoms: _539  and  _542
REMARK  223  A    between atoms: _542  and  _543
REMARK  224  A    between atoms: _543  and  _544
REMARK  225  A    between atoms: _544  and  _545
REMARK  226  A    between atoms: _554  and  _556
REMARK  227  A    between atoms: _556  and  _557
REMARK  228  A    between atoms: _556  and  _559
REMARK  229  A    between atoms: _559  and  _560
REMARK                            x       y       z     vdW  Elec       q    Type
REMARK                         _______ _______ _______ _____ _____    ______ ____
ROOT
ATOM      1  O   HOH     1      19.960  22.314   7.849  0.00  0.00    +0.000 OA
ENDROOT
TORSDOF 0
REMARK  Name = ../refined-set-2016/4kb9/4kb9_pocket.pdb
REMARK  229 active torsions:
REMARK  status: ('A' for Active; 'I' for Inactive)
REMARK    1  A    between atoms: _1  and  _3
REMARK    2  A    between atoms: _3  and  _4
REMARK    3  A    between atoms: _3  and  _6
REMARK    4  A    between atoms: _6  and  _7
REMARK    5  A    between atoms: _7  and  _8
REMARK    6  A    between atoms: _8  and  _9
REMARK    7  A    between atoms: _18  and  _20
REMARK    8  A    between atoms: _20  and  _21
REMARK    9  A    between atoms: _20  and  _23
REMARK   10  A    between atoms: _23  and  _24
REMARK   11  A    between atoms: _27  and  _29
REMARK   12  A    between atoms: _29  and  _30
REMARK   13  A    between atoms: _29  and  _32
REMARK   14  A    between atoms: _32  and  _33
REMARK   15  A    between atoms: _36  and  _38
REMARK   16  A    between atoms: _38  and  _39
REMARK   17  A    between atoms: _38  and  _41
REMARK   18  A    between atoms: _41  and  _42
REMARK   19  A    between atoms: _45  and  _47
REMARK   20  A    between atoms: _47  and  _48
REMARK   21  A    between atoms: _47  and  _50
REMARK   22  A    between atoms: _50  and  _51
REMARK   23  A    between atoms: _54  and  _56
REMARK   24  A    between atoms: _56  and  _57
REMARK   25  A    between atoms: _59  and  _61
REMARK   26  A    between atoms: _61  and  _62
REMARK   27  A    between atoms: _65  and  _67
REMARK   28  A    between atoms: _67  and  _68
REMARK   29  A    between atoms: _67  and  _70
REMARK   30  A    between atoms: _70  and  _71
REMARK   31  A    between atoms: _74  and  _76
REMARK   32  A    between atoms: _76  and  _77
REMARK   33  A    between atoms: _76  and  _79
REMARK   34  A    between atoms: _79  and  _80
REMARK   35  A    between atoms: _83  and  _85
REMARK   36  A    between atoms: _85  and  _86
REMARK   37  A    between atoms: _85  and  _88
REMARK   38  A    between atoms: _88  and  _89
REMARK   39  A    between atoms: _92  and  _94
REMARK   40  A    between atoms: _94  and  _95
REMARK   41  A    between atoms: _94  and  _97
REMARK   42  A    between atoms: _100  and  _102
REMARK   43  A    between atoms: _102  and  _103
REMARK   44  A    between atoms: _102  and  _105
REMARK   45  A    between atoms: _105  and  _106
REMARK   46  A    between atoms: _106  and  _107
REMARK   47  A    between atoms: _107  and  _108
REMARK   48  A    between atoms: _108  and  _109
REMARK   49  A    between atoms: _113  and  _115
REMARK   50  A    between atoms: _115  and  _116
REMARK   51  A    between atoms: _115  and  _118
REMARK   52  A    between atoms: _118  and  _119
REMARK   53  A    between atoms: _119  and  _120
REMARK   54  A    between atoms: _122  and  _124
REMARK   55  A    between atoms: _124  and  _125
REMARK   56  A    between atoms: _124  and  _127
REMARK   57  A    between atoms: _127  and  _128
REMARK   58  A    between atoms: _131  and  _133
REMARK   59  A    between atoms: _133  and  _134
REMARK   60  A    between atoms: _136  and  _138
REMARK   61  A    between atoms: _138  and  _139
REMARK   62  A    between atoms: _141  and  _143
REMARK   63  A    between atoms: _143  and  _144
REMARK   64  A    between atoms: _143  and  _146
REMARK   65  A    between atoms: _146  and  _147
REMARK   66  A    between atoms: _150  and  _152
REMARK   67  A    between atoms: _152  and  _153
REMARK   68  A    between atoms: _155  and  _157
REMARK   69  A    between atoms: _157  and  _158
REMARK   70  A    between atoms: _160  and  _162
REMARK   71  A    between atoms: _162  and  _163
REMARK   72  A    between atoms: _162  and  _165
REMARK   73  A    between atoms: _165  and  _166
REMARK   74  A    between atoms: _172  and  _174
REMARK   75  A    between atoms: _174  and  _175
REMARK   76  A    between atoms: _174  and  _177
REMARK   77  A    between atoms: _177  and  _178
REMARK   78  A    between atoms: _181  and  _183
REMARK   79  A    between atoms: _183  and  _184
REMARK   80  A    between atoms: _183  and  _186
REMARK   81  A    between atoms: _189  and  _191
REMARK   82  A    between atoms: _191  and  _192
REMARK   83  A    between atoms: _191  and  _194
REMARK   84  A    between atoms: _194  and  _195
REMARK   85  A    between atoms: _198  and  _200
REMARK   86  A    between atoms: _200  and  _201
REMARK   87  A    between atoms: _200  and  _203
REMARK   88  A    between atoms: _203  and  _204
REMARK   89  A    between atoms: _208  and  _209
REMARK   90  A    between atoms: _214  and  _216
REMARK   91  A    between atoms: _216  and  _217
REMARK   92  A    between atoms: _216  and  _219
REMARK   93  A    between atoms: _222  and  _224
REMARK   94  A    between atoms: _224  and  _225
REMARK   95  A    between atoms: _224  and  _227
REMARK   96  A    between atoms: _227  and  _228
REMARK   97  A    between atoms: _233  and  _235
REMARK   98  A    between atoms: _235  and  _236
REMARK   99  A    between atoms: _235  and  _238
REMARK  100  A    between atoms: _238  and  _239
REMARK  101  A    between atoms: _242  and  _244
REMARK  102  A    between atoms: _244  and  _245
REMARK  103  A    between atoms: _247  and  _249
REMARK  104  A    between atoms: _249  and  _250
REMARK  105  A    between atoms: _249  and  _252
REMARK  106  A    between atoms: _252  and  _253
REMARK  107  A    between atoms: _253  and  _254
REMARK  108  A    between atoms: _254  and  _255
REMARK  109  A    between atoms: _264  and  _266
REMARK  110  A    between atoms: _266  and  _267
REMARK  111  A    between atoms: _266  and  _269
REMARK  112  A    between atoms: _269  and  _270
REMARK  113  A    between atoms: _275  and  _277
REMARK  114  A    between atoms: _277  and  _278
REMARK  115  A    between atoms: _277  and  _280
REMARK  116  A    between atoms: _280  and  _281
REMARK  117  A    between atoms: _281  and  _282
REMARK  118  A    between atoms: _282  and  _283
REMARK  119  A    between atoms: _292  and  _294
REMARK  120  A    between atoms: _294  and  _295
REMARK  121  A    between atoms: _294  and  _297
REMARK  122  A    between atoms: _297  and  _298
REMARK  123  A    between atoms: _301  and  _303
REMARK  124  A    between atoms: _303  and  _304
REMARK  125  A    between atoms: _303  and  _306
REMARK  126  A    between atoms: _306  and  _307
REMARK  127  A    between atoms: _310  and  _312
REMARK  128  A    between atoms: _312  and  _313
REMARK  129  A    between atoms: _312  and  _315
REMARK  130  A    between atoms: _315  and  _316
REMARK  131  A    between atoms: _319  and  _321
REMARK  132  A    between atoms: _321  and  _322
REMARK  133  A    between atoms: _321  and  _324
REMARK  134  A    between atoms: _324  and  _325
REMARK  135  A    between atoms: _328  and  _330
REMARK  136  A    between atoms: _330  and  _331
REMARK  137  A    between atoms: _333  and  _335
REMARK  138  A    between atoms: _335  and  _336
REMARK  139  A    between atoms: _339  and  _341
REMARK  140  A    between atoms: _341  and  _342
REMARK  141  A    between atoms: _341  and  _344
REMARK  142  A    between atoms: _344  and  _345
REMARK  143  A    between atoms: _348  and  _350
REMARK  144  A    between atoms: _350  and  _351
REMARK  145  A    between atoms: _350  and  _353
REMARK  146  A    between atoms: _353  and  _354
REMARK  147  A    between atoms: _357  and  _359
REMARK  148  A    between atoms: _359  and  _360
REMARK  149  A    between atoms: _359  and  _362
REMARK  150  A    between atoms: _362  and  _363
REMARK  151  A    between atoms: _366  and  _368
REMARK  152  A    between atoms: _368  and  _369
REMARK  153  A    between atoms: _368  and  _371
REMARK  154  A    between atoms: _374  and  _376
REMARK  155  A    between atoms: _376  and  _377
REMARK  156  A    between atoms: _376  and  _379
REMARK  157  A    between atoms: _379  and  _380
REMARK  158  A    between atoms: _380  and  _381
REMARK  159  A    between atoms: _381  and  _382
REMARK  160  A    between atoms: _382  and  _383
REMARK  161  A    between atoms: _387  and  _389
REMARK  162  A    between atoms: _389  and  _390
REMARK  163  A    between atoms: _389  and  _392
REMARK  164  A    between atoms: _392  and  _393
REMARK  165  A    between atoms: _393  and  _394
REMARK  166  A    between atoms: _396  and  _398
REMARK  167  A    between atoms: _398  and  _399
REMARK  168  A    between atoms: _398  and  _401
REMARK  169  A    between atoms: _401  and  _402
REMARK  170  A    between atoms: _405  and  _407
REMARK  171  A    between atoms: _407  and  _408
REMARK  172  A    between atoms: _410  and  _412
REMARK  173  A    between atoms: _412  and  _413
REMARK  174  A    between atoms: _415  and  _417
REMARK  175  A    between atoms: _417  and  _418
REMARK  176  A    between atoms: _417  and  _420
REMARK  177  A    between atoms: _420  and  _421
REMARK  178  A    between atoms: _424  and  _426
REMARK  179  A    between atoms: _426  and  _427
REMARK  180  A    between atoms: _429  and  _431
REMARK  181  A    between atoms: _431  and  _432
REMARK  182  A    between atoms: _434  and  _436
REMARK  183  A    between atoms: _436  and  _437
REMARK  184  A    between atoms: _436  and  _439
REMARK  185  A    between atoms: _439  and  _440
REMARK  186  A    between atoms: _446  and  _448
REMARK  187  A    between atoms: _448  and  _449
REMARK  188  A    between atoms: _448  and  _451
REMARK  189  A    between atoms: _451  and  _452
REMARK  190  A    between atoms: _455  and  _457
REMARK  191  A    between atoms: _457  and  _458
REMARK  192  A    between atoms: _457  and  _460
REMARK  193  A    between atoms: _463  and  _465
REMARK  194  A    between atoms: _465  and  _466
REMARK  195  A    between atoms: _465  and  _468
REMARK  196  A    between atoms: _468  and  _469
REMARK  197  A    between atoms: _473  and  _474
REMARK  198  A    between atoms: _479  and  _481
REMARK  199  A    between atoms: _481  and  _482
REMARK  200  A    between atoms: _481  and  _484
REMARK  201  A    between atoms: _484  and  _485
REMARK  202  A    between atoms: _489  and  _490
REMARK  203  A    between atoms: _495  and  _497
REMARK  204  A    between atoms: _497  and  _498
REMARK  205  A    between atoms: _497  and  _500
REMARK  206  A    between atoms: _503  and  _505
REMARK  207  A    between atoms: _505  and  _506
REMARK  208  A    between atoms: _505  and  _508
REMARK  209  A    between atoms: _508  and  _509
REMARK  210  A    between atoms: _514  and  _516
REMARK  211  A    between atoms: _516  and  _517
REMARK  212  A    between atoms: _516  and  _519
REMARK  213  A    between atoms: _519  and  _520
REMARK  214  A    between atoms: _523  and  _525
REMARK  215  A    between atoms: _525  and  _526
REMARK  216  A    between atoms: _525  and  _528
REMARK  217  A    between atoms: _528  and  _529
REMARK  218  A    between atoms: _532  and  _534
REMARK  219  A    between atoms: _534  and  _535
REMARK  220  A    between atoms: _537  and  _539
REMARK  221  A    between atoms: _539  and  _540
REMARK  222  A    between atoms: _539  and  _542
REMARK  223  A    between atoms: _542  and  _543
REMARK  224  A    between atoms: _543  and  _544
REMARK  225  A    between atoms: _544  and  _545
REMARK  226  A    between atoms: _554  and  _556
REMARK  227  A    between atoms: _556  and  _557
REMARK  228  A    between atoms: _556  and  _559
REMARK  229  A    between atoms: _559  and  _560
REMARK                            x       y       z     vdW  Elec       q    Type
REMARK                         _______ _______ _______ _____ _____    ______ ____
ROOT
ATOM      1  O   HOH     1       3.725  12.591  17.262  0.00  0.00    +0.000 OA
ENDROOT
TORSDOF 0
REMARK  Name = ../refined-set-2016/4kb9/4kb9_pocket.pdb
REMARK  229 active torsions:
REMARK  status: ('A' for Active; 'I' for Inactive)
REMARK    1  A    between atoms: _1  and  _3
REMARK    2  A    between atoms: _3  and  _4
REMARK    3  A    between atoms: _3  and  _6
REMARK    4  A    between atoms: _6  and  _7
REMARK    5  A    between atoms: _7  and  _8
REMARK    6  A    between atoms: _8  and  _9
REMARK    7  A    between atoms: _18  and  _20
REMARK    8  A    between atoms: _20  and  _21
REMARK    9  A    between atoms: _20  and  _23
REMARK   10  A    between atoms: _23  and  _24
REMARK   11  A    between atoms: _27  and  _29
REMARK   12  A    between atoms: _29  and  _30
REMARK   13  A    between atoms: _29  and  _32
REMARK   14  A    between atoms: _32  and  _33
REMARK   15  A    between atoms: _36  and  _38
REMARK   16  A    between atoms: _38  and  _39
REMARK   17  A    between atoms: _38  and  _41
REMARK   18  A    between atoms: _41  and  _42
REMARK   19  A    between atoms: _45  and  _47
REMARK   20  A    between atoms: _47  and  _48
REMARK   21  A    between atoms: _47  and  _50
REMARK   22  A    between atoms: _50  and  _51
REMARK   23  A    between atoms: _54  and  _56
REMARK   24  A    between atoms: _56  and  _57
REMARK   25  A    between atoms: _59  and  _61
REMARK   26  A    between atoms: _61  and  _62
REMARK   27  A    between atoms: _65  and  _67
REMARK   28  A    between atoms: _67  and  _68
REMARK   29  A    between atoms: _67  and  _70
REMARK   30  A    between atoms: _70  and  _71
REMARK   31  A    between atoms: _74  and  _76
REMARK   32  A    between atoms: _76  and  _77
REMARK   33  A    between atoms: _76  and  _79
REMARK   34  A    between atoms: _79  and  _80
REMARK   35  A    between atoms: _83  and  _85
REMARK   36  A    between atoms: _85  and  _86
REMARK   37  A    between atoms: _85  and  _88
REMARK   38  A    between atoms: _88  and  _89
REMARK   39  A    between atoms: _92  and  _94
REMARK   40  A    between atoms: _94  and  _95
REMARK   41  A    between atoms: _94  and  _97
REMARK   42  A    between atoms: _100  and  _102
REMARK   43  A    between atoms: _102  and  _103
REMARK   44  A    between atoms: _102  and  _105
REMARK   45  A    between atoms: _105  and  _106
REMARK   46  A    between atoms: _106  and  _107
REMARK   47  A    between atoms: _107  and  _108
REMARK   48  A    between atoms: _108  and  _109
REMARK   49  A    between atoms: _113  and  _115
REMARK   50  A    between atoms: _115  and  _116
REMARK   51  A    between atoms: _115  and  _118
REMARK   52  A    between atoms: _118  and  _119
REMARK   53  A    between atoms: _119  and  _120
REMARK   54  A    between atoms: _122  and  _124
REMARK   55  A    between atoms: _124  and  _125
REMARK   56  A    between atoms: _124  and  _127
REMARK   57  A    between atoms: _127  and  _128
REMARK   58  A    between atoms: _131  and  _133
REMARK   59  A    between atoms: _133  and  _134
REMARK   60  A    between atoms: _136  and  _138
REMARK   61  A    between atoms: _138  and  _139
REMARK   62  A    between atoms: _141  and  _143
REMARK   63  A    between atoms: _143  and  _144
REMARK   64  A    between atoms: _143  and  _146
REMARK   65  A    between atoms: _146  and  _147
REMARK   66  A    between atoms: _150  and  _152
REMARK   67  A    between atoms: _152  and  _153
REMARK   68  A    between atoms: _155  and  _157
REMARK   69  A    between atoms: _157  and  _158
REMARK   70  A    between atoms: _160  and  _162
REMARK   71  A    between atoms: _162  and  _163
REMARK   72  A    between atoms: _162  and  _165
REMARK   73  A    between atoms: _165  and  _166
REMARK   74  A    between atoms: _172  and  _174
REMARK   75  A    between atoms: _174  and  _175
REMARK   76  A    between atoms: _174  and  _177
REMARK   77  A    between atoms: _177  and  _178
REMARK   78  A    between atoms: _181  and  _183
REMARK   79  A    between atoms: _183  and  _184
REMARK   80  A    between atoms: _183  and  _186
REMARK   81  A    between atoms: _189  and  _191
REMARK   82  A    between atoms: _191  and  _192
REMARK   83  A    between atoms: _191  and  _194
REMARK   84  A    between atoms: _194  and  _195
REMARK   85  A    between atoms: _198  and  _200
REMARK   86  A    between atoms: _200  and  _201
REMARK   87  A    between atoms: _200  and  _203
REMARK   88  A    between atoms: _203  and  _204
REMARK   89  A    between atoms: _208  and  _209
REMARK   90  A    between atoms: _214  and  _216
REMARK   91  A    between atoms: _216  and  _217
REMARK   92  A    between atoms: _216  and  _219
REMARK   93  A    between atoms: _222  and  _224
REMARK   94  A    between atoms: _224  and  _225
REMARK   95  A    between atoms: _224  and  _227
REMARK   96  A    between atoms: _227  and  _228
REMARK   97  A    between atoms: _233  and  _235
REMARK   98  A    between atoms: _235  and  _236
REMARK   99  A    between atoms: _235  and  _238
REMARK  100  A    between atoms: _238  and  _239
REMARK  101  A    between atoms: _242  and  _244
REMARK  102  A    between atoms: _244  and  _245
REMARK  103  A    between atoms: _247  and  _249
REMARK  104  A    between atoms: _249  and  _250
REMARK  105  A    between atoms: _249  and  _252
REMARK  106  A    between atoms: _252  and  _253
REMARK  107  A    between atoms: _253  and  _254
REMARK  108  A    between atoms: _254  and  _255
REMARK  109  A    between atoms: _264  and  _266
REMARK  110  A    between atoms: _266  and  _267
REMARK  111  A    between atoms: _266  and  _269
REMARK  112  A    between atoms: _269  and  _270
REMARK  113  A    between atoms: _275  and  _277
REMARK  114  A    between atoms: _277  and  _278
REMARK  115  A    between atoms: _277  and  _280
REMARK  116  A    between atoms: _280  and  _281
REMARK  117  A    between atoms: _281  and  _282
REMARK  118  A    between atoms: _282  and  _283
REMARK  119  A    between atoms: _292  and  _294
REMARK  120  A    between atoms: _294  and  _295
REMARK  121  A    between atoms: _294  and  _297
REMARK  122  A    between atoms: _297  and  _298
REMARK  123  A    between atoms: _301  and  _303
REMARK  124  A    between atoms: _303  and  _304
REMARK  125  A    between atoms: _303  and  _306
REMARK  126  A    between atoms: _306  and  _307
REMARK  127  A    between atoms: _310  and  _312
REMARK  128  A    between atoms: _312  and  _313
REMARK  129  A    between atoms: _312  and  _315
REMARK  130  A    between atoms: _315  and  _316
REMARK  131  A    between atoms: _319  and  _321
REMARK  132  A    between atoms: _321  and  _322
REMARK  133  A    between atoms: _321  and  _324
REMARK  134  A    between atoms: _324  and  _325
REMARK  135  A    between atoms: _328  and  _330
REMARK  136  A    between atoms: _330  and  _331
REMARK  137  A    between atoms: _333  and  _335
REMARK  138  A    between atoms: _335  and  _336
REMARK  139  A    between atoms: _339  and  _341
REMARK  140  A    between atoms: _341  and  _342
REMARK  141  A    between atoms: _341  and  _344
REMARK  142  A    between atoms: _344  and  _345
REMARK  143  A    between atoms: _348  and  _350
REMARK  144  A    between atoms: _350  and  _351
REMARK  145  A    between atoms: _350  and  _353
REMARK  146  A    between atoms: _353  and  _354
REMARK  147  A    between atoms: _357  and  _359
REMARK  148  A    between atoms: _359  and  _360
REMARK  149  A    between atoms: _359  and  _362
REMARK  150  A    between atoms: _362  and  _363
REMARK  151  A    between atoms: _366  and  _368
REMARK  152  A    between atoms: _368  and  _369
REMARK  153  A    between atoms: _368  and  _371
REMARK  154  A    between atoms: _374  and  _376
REMARK  155  A    between atoms: _376  and  _377
REMARK  156  A    between atoms: _376  and  _379
REMARK  157  A    between atoms: _379  and  _380
REMARK  158  A    between atoms: _380  and  _381
REMARK  159  A    between atoms: _381  and  _382
REMARK  160  A    between atoms: _382  and  _383
REMARK  161  A    between atoms: _387  and  _389
REMARK  162  A    between atoms: _389  and  _390
REMARK  163  A    between atoms: _389  and  _392
REMARK  164  A    between atoms: _392  and  _393
REMARK  165  A    between atoms: _393  and  _394
REMARK  166  A    between atoms: _396  and  _398
REMARK  167  A    between atoms: _398  and  _399
REMARK  168  A    between atoms: _398  and  _401
REMARK  169  A    between atoms: _401  and  _402
REMARK  170  A    between atoms: _405  and  _407
REMARK  171  A    between atoms: _407  and  _408
REMARK  172  A    between atoms: _410  and  _412
REMARK  173  A    between atoms: _412  and  _413
REMARK  174  A    between atoms: _415  and  _417
REMARK  175  A    between atoms: _417  and  _418
REMARK  176  A    between atoms: _417  and  _420
REMARK  177  A    between atoms: _420  and  _421
REMARK  178  A    between atoms: _424  and  _426
REMARK  179  A    between atoms: _426  and  _427
REMARK  180  A    between atoms: _429  and  _431
REMARK  181  A    between atoms: _431  and  _432
REMARK  182  A    between atoms: _434  and  _436
REMARK  183  A    between atoms: _436  and  _437
REMARK  184  A    between atoms: _436  and  _439
REMARK  185  A    between atoms: _439  and  _440
REMARK  186  A    between atoms: _446  and  _448
REMARK  187  A    between atoms: _448  and  _449
REMARK  188  A    between atoms: _448  and  _451
REMARK  189  A    between atoms: _451  and  _452
REMARK  190  A    between atoms: _455  and  _457
REMARK  191  A    between atoms: _457  and  _458
REMARK  192  A    between atoms: _457  and  _460
REMARK  193  A    between atoms: _463  and  _465
REMARK  194  A    between atoms: _465  and  _466
REMARK  195  A    between atoms: _465  and  _468
REMARK  196  A    between atoms: _468  and  _469
REMARK  197  A    between atoms: _473  and  _474
REMARK  198  A    between atoms: _479  and  _481
REMARK  199  A    between atoms: _481  and  _482
REMARK  200  A    between atoms: _481  and  _484
REMARK  201  A    between atoms: _484  and  _485
REMARK  202  A    between atoms: _489  and  _490
REMARK  203  A    between atoms: _495  and  _497
REMARK  204  A    between atoms: _497  and  _498
REMARK  205  A    between atoms: _497  and  _500
REMARK  206  A    between atoms: _503  and  _505
REMARK  207  A    between atoms: _505  and  _506
REMARK  208  A    between atoms: _505  and  _508
REMARK  209  A    between atoms: _508  and  _509
REMARK  210  A    between atoms: _514  and  _516
REMARK  211  A    between atoms: _516  and  _517
REMARK  212  A    between atoms: _516  and  _519
REMARK  213  A    between atoms: _519  and  _520
REMARK  214  A    between atoms: _523  and  _525
REMARK  215  A    between atoms: _525  and  _526
REMARK  216  A    between atoms: _525  and  _528
REMARK  217  A    between atoms: _528  and  _529
REMARK  218  A    between atoms: _532  and  _534
REMARK  219  A    between atoms: _534  and  _535
REMARK  220  A    between atoms: _537  and  _539
REMARK  221  A    between atoms: _539  and  _540
REMARK  222  A    between atoms: _539  and  _542
REMARK  223  A    between atoms: _542  and  _543
REMARK  224  A    between atoms: _543  and  _544
REMARK  225  A    between atoms: _544  and  _545
REMARK  226  A    between atoms: _554  and  _556
REMARK  227  A    between atoms: _556  and  _557
REMARK  228  A    between atoms: _556  and  _559
REMARK  229  A    between atoms: _559  and  _560
REMARK                            x       y       z     vdW  Elec       q    Type
REMARK                         _______ _______ _______ _____ _____    ______ ____
ROOT
ATOM      1  O   HOH     1       2.176  18.299  18.143  0.00  0.00    +0.000 OA
ENDROOT
TORSDOF 0
REMARK  Name = ../refined-set-2016/4kb9/4kb9_pocket.pdb
REMARK  229 active torsions:
REMARK  status: ('A' for Active; 'I' for Inactive)
REMARK    1  A    between atoms: _1  and  _3
REMARK    2  A    between atoms: _3  and  _4
REMARK    3  A    between atoms: _3  and  _6
REMARK    4  A    between atoms: _6  and  _7
REMARK    5  A    between atoms: _7  and  _8
REMARK    6  A    between atoms: _8  and  _9
REMARK    7  A    between atoms: _18  and  _20
REMARK    8  A    between atoms: _20  and  _21
REMARK    9  A    between atoms: _20  and  _23
REMARK   10  A    between atoms: _23  and  _24
REMARK   11  A    between atoms: _27  and  _29
REMARK   12  A    between atoms: _29  and  _30
REMARK   13  A    between atoms: _29  and  _32
REMARK   14  A    between atoms: _32  and  _33
REMARK   15  A    between atoms: _36  and  _38
REMARK   16  A    between atoms: _38  and  _39
REMARK   17  A    between atoms: _38  and  _41
REMARK   18  A    between atoms: _41  and  _42
REMARK   19  A    between atoms: _45  and  _47
REMARK   20  A    between atoms: _47  and  _48
REMARK   21  A    between atoms: _47  and  _50
REMARK   22  A    between atoms: _50  and  _51
REMARK   23  A    between atoms: _54  and  _56
REMARK   24  A    between atoms: _56  and  _57
REMARK   25  A    between atoms: _59  and  _61
REMARK   26  A    between atoms: _61  and  _62
REMARK   27  A    between atoms: _65  and  _67
REMARK   28  A    between atoms: _67  and  _68
REMARK   29  A    between atoms: _67  and  _70
REMARK   30  A    between atoms: _70  and  _71
REMARK   31  A    between atoms: _74  and  _76
REMARK   32  A    between atoms: _76  and  _77
REMARK   33  A    between atoms: _76  and  _79
REMARK   34  A    between atoms: _79  and  _80
REMARK   35  A    between atoms: _83  and  _85
REMARK   36  A    between atoms: _85  and  _86
REMARK   37  A    between atoms: _85  and  _88
REMARK   38  A    between atoms: _88  and  _89
REMARK   39  A    between atoms: _92  and  _94
REMARK   40  A    between atoms: _94  and  _95
REMARK   41  A    between atoms: _94  and  _97
REMARK   42  A    between atoms: _100  and  _102
REMARK   43  A    between atoms: _102  and  _103
REMARK   44  A    between atoms: _102  and  _105
REMARK   45  A    between atoms: _105  and  _106
REMARK   46  A    between atoms: _106  and  _107
REMARK   47  A    between atoms: _107  and  _108
REMARK   48  A    between atoms: _108  and  _109
REMARK   49  A    between atoms: _113  and  _115
REMARK   50  A    between atoms: _115  and  _116
REMARK   51  A    between atoms: _115  and  _118
REMARK   52  A    between atoms: _118  and  _119
REMARK   53  A    between atoms: _119  and  _120
REMARK   54  A    between atoms: _122  and  _124
REMARK   55  A    between atoms: _124  and  _125
REMARK   56  A    between atoms: _124  and  _127
REMARK   57  A    between atoms: _127  and  _128
REMARK   58  A    between atoms: _131  and  _133
REMARK   59  A    between atoms: _133  and  _134
REMARK   60  A    between atoms: _136  and  _138
REMARK   61  A    between atoms: _138  and  _139
REMARK   62  A    between atoms: _141  and  _143
REMARK   63  A    between atoms: _143  and  _144
REMARK   64  A    between atoms: _143  and  _146
REMARK   65  A    between atoms: _146  and  _147
REMARK   66  A    between atoms: _150  and  _152
REMARK   67  A    between atoms: _152  and  _153
REMARK   68  A    between atoms: _155  and  _157
REMARK   69  A    between atoms: _157  and  _158
REMARK   70  A    between atoms: _160  and  _162
REMARK   71  A    between atoms: _162  and  _163
REMARK   72  A    between atoms: _162  and  _165
REMARK   73  A    between atoms: _165  and  _166
REMARK   74  A    between atoms: _172  and  _174
REMARK   75  A    between atoms: _174  and  _175
REMARK   76  A    between atoms: _174  and  _177
REMARK   77  A    between atoms: _177  and  _178
REMARK   78  A    between atoms: _181  and  _183
REMARK   79  A    between atoms: _183  and  _184
REMARK   80  A    between atoms: _183  and  _186
REMARK   81  A    between atoms: _189  and  _191
REMARK   82  A    between atoms: _191  and  _192
REMARK   83  A    between atoms: _191  and  _194
REMARK   84  A    between atoms: _194  and  _195
REMARK   85  A    between atoms: _198  and  _200
REMARK   86  A    between atoms: _200  and  _201
REMARK   87  A    between atoms: _200  and  _203
REMARK   88  A    between atoms: _203  and  _204
REMARK   89  A    between atoms: _208  and  _209
REMARK   90  A    between atoms: _214  and  _216
REMARK   91  A    between atoms: _216  and  _217
REMARK   92  A    between atoms: _216  and  _219
REMARK   93  A    between atoms: _222  and  _224
REMARK   94  A    between atoms: _224  and  _225
REMARK   95  A    between atoms: _224  and  _227
REMARK   96  A    between atoms: _227  and  _228
REMARK   97  A    between atoms: _233  and  _235
REMARK   98  A    between atoms: _235  and  _236
REMARK   99  A    between atoms: _235  and  _238
REMARK  100  A    between atoms: _238  and  _239
REMARK  101  A    between atoms: _242  and  _244
REMARK  102  A    between atoms: _244  and  _245
REMARK  103  A    between atoms: _247  and  _249
REMARK  104  A    between atoms: _249  and  _250
REMARK  105  A    between atoms: _249  and  _252
REMARK  106  A    between atoms: _252  and  _253
REMARK  107  A    between atoms: _253  and  _254
REMARK  108  A    between atoms: _254  and  _255
REMARK  109  A    between atoms: _264  and  _266
REMARK  110  A    between atoms: _266  and  _267
REMARK  111  A    between atoms: _266  and  _269
REMARK  112  A    between atoms: _269  and  _270
REMARK  113  A    between atoms: _275  and  _277
REMARK  114  A    between atoms: _277  and  _278
REMARK  115  A    between atoms: _277  and  _280
REMARK  116  A    between atoms: _280  and  _281
REMARK  117  A    between atoms: _281  and  _282
REMARK  118  A    between atoms: _282  and  _283
REMARK  119  A    between atoms: _292  and  _294
REMARK  120  A    between atoms: _294  and  _295
REMARK  121  A    between atoms: _294  and  _297
REMARK  122  A    between atoms: _297  and  _298
REMARK  123  A    between atoms: _301  and  _303
REMARK  124  A    between atoms: _303  and  _304
REMARK  125  A    between atoms: _303  and  _306
REMARK  126  A    between atoms: _306  and  _307
REMARK  127  A    between atoms: _310  and  _312
REMARK  128  A    between atoms: _312  and  _313
REMARK  129  A    between atoms: _312  and  _315
REMARK  130  A    between atoms: _315  and  _316
REMARK  131  A    between atoms: _319  and  _321
REMARK  132  A    between atoms: _321  and  _322
REMARK  133  A    between atoms: _321  and  _324
REMARK  134  A    between atoms: _324  and  _325
REMARK  135  A    between atoms: _328  and  _330
REMARK  136  A    between atoms: _330  and  _331
REMARK  137  A    between atoms: _333  and  _335
REMARK  138  A    between atoms: _335  and  _336
REMARK  139  A    between atoms: _339  and  _341
REMARK  140  A    between atoms: _341  and  _342
REMARK  141  A    between atoms: _341  and  _344
REMARK  142  A    between atoms: _344  and  _345
REMARK  143  A    between atoms: _348  and  _350
REMARK  144  A    between atoms: _350  and  _351
REMARK  145  A    between atoms: _350  and  _353
REMARK  146  A    between atoms: _353  and  _354
REMARK  147  A    between atoms: _357  and  _359
REMARK  148  A    between atoms: _359  and  _360
REMARK  149  A    between atoms: _359  and  _362
REMARK  150  A    between atoms: _362  and  _363
REMARK  151  A    between atoms: _366  and  _368
REMARK  152  A    between atoms: _368  and  _369
REMARK  153  A    between atoms: _368  and  _371
REMARK  154  A    between atoms: _374  and  _376
REMARK  155  A    between atoms: _376  and  _377
REMARK  156  A    between atoms: _376  and  _379
REMARK  157  A    between atoms: _379  and  _380
REMARK  158  A    between atoms: _380  and  _381
REMARK  159  A    between atoms: _381  and  _382
REMARK  160  A    between atoms: _382  and  _383
REMARK  161  A    between atoms: _387  and  _389
REMARK  162  A    between atoms: _389  and  _390
REMARK  163  A    between atoms: _389  and  _392
REMARK  164  A    between atoms: _392  and  _393
REMARK  165  A    between atoms: _393  and  _394
REMARK  166  A    between atoms: _396  and  _398
REMARK  167  A    between atoms: _398  and  _399
REMARK  168  A    between atoms: _398  and  _401
REMARK  169  A    between atoms: _401  and  _402
REMARK  170  A    between atoms: _405  and  _407
REMARK  171  A    between atoms: _407  and  _408
REMARK  172  A    between atoms: _410  and  _412
REMARK  173  A    between atoms: _412  and  _413
REMARK  174  A    between atoms: _415  and  _417
REMARK  175  A    between atoms: _417  and  _418
REMARK  176  A    between atoms: _417  and  _420
REMARK  177  A    between atoms: _420  and  _421
REMARK  178  A    between atoms: _424  and  _426
REMARK  179  A    between atoms: _426  and  _427
REMARK  180  A    between atoms: _429  and  _431
REMARK  181  A    between atoms: _431  and  _432
REMARK  182  A    between atoms: _434  and  _436
REMARK  183  A    between atoms: _436  and  _437
REMARK  184  A    between atoms: _436  and  _439
REMARK  185  A    between atoms: _439  and  _440
REMARK  186  A    between atoms: _446  and  _448
REMARK  187  A    between atoms: _448  and  _449
REMARK  188  A    between atoms: _448  and  _451
REMARK  189  A    between atoms: _451  and  _452
REMARK  190  A    between atoms: _455  and  _457
REMARK  191  A    between atoms: _457  and  _458
REMARK  192  A    between atoms: _457  and  _460
REMARK  193  A    between atoms: _463  and  _465
REMARK  194  A    between atoms: _465  and  _466
REMARK  195  A    between atoms: _465  and  _468
REMARK  196  A    between atoms: _468  and  _469
REMARK  197  A    between atoms: _473  and  _474
REMARK  198  A    between atoms: _479  and  _481
REMARK  199  A    between atoms: _481  and  _482
REMARK  200  A    between atoms: _481  and  _484
REMARK  201  A    between atoms: _484  and  _485
REMARK  202  A    between atoms: _489  and  _490
REMARK  203  A    between atoms: _495  and  _497
REMARK  204  A    between atoms: _497  and  _498
REMARK  205  A    between atoms: _497  and  _500
REMARK  206  A    between atoms: _503  and  _505
REMARK  207  A    between atoms: _505  and  _506
REMARK  208  A    between atoms: _505  and  _508
REMARK  209  A    between atoms: _508  and  _509
REMARK  210  A    between atoms: _514  and  _516
REMARK  211  A    between atoms: _516  and  _517
REMARK  212  A    between atoms: _516  and  _519
REMARK  213  A    between atoms: _519  and  _520
REMARK  214  A    between atoms: _523  and  _525
REMARK  215  A    between atoms: _525  and  _526
REMARK  216  A    between atoms: _525  and  _528
REMARK  217  A    between atoms: _528  and  _529
REMARK  218  A    between atoms: _532  and  _534
REMARK  219  A    between atoms: _534  and  _535
REMARK  220  A    between atoms: _537  and  _539
REMARK  221  A    between atoms: _539  and  _540
REMARK  222  A    between atoms: _539  and  _542
REMARK  223  A    between atoms: _542  and  _543
REMARK  224  A    between atoms: _543  and  _544
REMARK  225  A    between atoms: _544  and  _545
REMARK  226  A    between atoms: _554  and  _556
REMARK  227  A    between atoms: _556  and  _557
REMARK  228  A    between atoms: _556  and  _559
REMARK  229  A    between atoms: _559  and  _560
REMARK                            x       y       z     vdW  Elec       q    Type
REMARK                         _______ _______ _______ _____ _____    ______ ____
ROOT
ATOM      1  O   HOH     1      21.597  23.555  10.039  0.00  0.00    +0.000 OA
ENDROOT
TORSDOF 0
REMARK  Name = ../refined-set-2016/4kb9/4kb9_pocket.pdb
REMARK  229 active torsions:
REMARK  status: ('A' for Active; 'I' for Inactive)
REMARK    1  A    between atoms: _1  and  _3
REMARK    2  A    between atoms: _3  and  _4
REMARK    3  A    between atoms: _3  and  _6
REMARK    4  A    between atoms: _6  and  _7
REMARK    5  A    between atoms: _7  and  _8
REMARK    6  A    between atoms: _8  and  _9
REMARK    7  A    between atoms: _18  and  _20
REMARK    8  A    between atoms: _20  and  _21
REMARK    9  A    between atoms: _20  and  _23
REMARK   10  A    between atoms: _23  and  _24
REMARK   11  A    between atoms: _27  and  _29
REMARK   12  A    between atoms: _29  and  _30
REMARK   13  A    between atoms: _29  and  _32
REMARK   14  A    between atoms: _32  and  _33
REMARK   15  A    between atoms: _36  and  _38
REMARK   16  A    between atoms: _38  and  _39
REMARK   17  A    between atoms: _38  and  _41
REMARK   18  A    between atoms: _41  and  _42
REMARK   19  A    between atoms: _45  and  _47
REMARK   20  A    between atoms: _47  and  _48
REMARK   21  A    between atoms: _47  and  _50
REMARK   22  A    between atoms: _50  and  _51
REMARK   23  A    between atoms: _54  and  _56
REMARK   24  A    between atoms: _56  and  _57
REMARK   25  A    between atoms: _59  and  _61
REMARK   26  A    between atoms: _61  and  _62
REMARK   27  A    between atoms: _65  and  _67
REMARK   28  A    between atoms: _67  and  _68
REMARK   29  A    between atoms: _67  and  _70
REMARK   30  A    between atoms: _70  and  _71
REMARK   31  A    between atoms: _74  and  _76
REMARK   32  A    between atoms: _76  and  _77
REMARK   33  A    between atoms: _76  and  _79
REMARK   34  A    between atoms: _79  and  _80
REMARK   35  A    between atoms: _83  and  _85
REMARK   36  A    between atoms: _85  and  _86
REMARK   37  A    between atoms: _85  and  _88
REMARK   38  A    between atoms: _88  and  _89
REMARK   39  A    between atoms: _92  and  _94
REMARK   40  A    between atoms: _94  and  _95
REMARK   41  A    between atoms: _94  and  _97
REMARK   42  A    between atoms: _100  and  _102
REMARK   43  A    between atoms: _102  and  _103
REMARK   44  A    between atoms: _102  and  _105
REMARK   45  A    between atoms: _105  and  _106
REMARK   46  A    between atoms: _106  and  _107
REMARK   47  A    between atoms: _107  and  _108
REMARK   48  A    between atoms: _108  and  _109
REMARK   49  A    between atoms: _113  and  _115
REMARK   50  A    between atoms: _115  and  _116
REMARK   51  A    between atoms: _115  and  _118
REMARK   52  A    between atoms: _118  and  _119
REMARK   53  A    between atoms: _119  and  _120
REMARK   54  A    between atoms: _122  and  _124
REMARK   55  A    between atoms: _124  and  _125
REMARK   56  A    between atoms: _124  and  _127
REMARK   57  A    between atoms: _127  and  _128
REMARK   58  A    between atoms: _131  and  _133
REMARK   59  A    between atoms: _133  and  _134
REMARK   60  A    between atoms: _136  and  _138
REMARK   61  A    between atoms: _138  and  _139
REMARK   62  A    between atoms: _141  and  _143
REMARK   63  A    between atoms: _143  and  _144
REMARK   64  A    between atoms: _143  and  _146
REMARK   65  A    between atoms: _146  and  _147
REMARK   66  A    between atoms: _150  and  _152
REMARK   67  A    between atoms: _152  and  _153
REMARK   68  A    between atoms: _155  and  _157
REMARK   69  A    between atoms: _157  and  _158
REMARK   70  A    between atoms: _160  and  _162
REMARK   71  A    between atoms: _162  and  _163
REMARK   72  A    between atoms: _162  and  _165
REMARK   73  A    between atoms: _165  and  _166
REMARK   74  A    between atoms: _172  and  _174
REMARK   75  A    between atoms: _174  and  _175
REMARK   76  A    between atoms: _174  and  _177
REMARK   77  A    between atoms: _177  and  _178
REMARK   78  A    between atoms: _181  and  _183
REMARK   79  A    between atoms: _183  and  _184
REMARK   80  A    between atoms: _183  and  _186
REMARK   81  A    between atoms: _189  and  _191
REMARK   82  A    between atoms: _191  and  _192
REMARK   83  A    between atoms: _191  and  _194
REMARK   84  A    between atoms: _194  and  _195
REMARK   85  A    between atoms: _198  and  _200
REMARK   86  A    between atoms: _200  and  _201
REMARK   87  A    between atoms: _200  and  _203
REMARK   88  A    between atoms: _203  and  _204
REMARK   89  A    between atoms: _208  and  _209
REMARK   90  A    between atoms: _214  and  _216
REMARK   91  A    between atoms: _216  and  _217
REMARK   92  A    between atoms: _216  and  _219
REMARK   93  A    between atoms: _222  and  _224
REMARK   94  A    between atoms: _224  and  _225
REMARK   95  A    between atoms: _224  and  _227
REMARK   96  A    between atoms: _227  and  _228
REMARK   97  A    between atoms: _233  and  _235
REMARK   98  A    between atoms: _235  and  _236
REMARK   99  A    between atoms: _235  and  _238
REMARK  100  A    between atoms: _238  and  _239
REMARK  101  A    between atoms: _242  and  _244
REMARK  102  A    between atoms: _244  and  _245
REMARK  103  A    between atoms: _247  and  _249
REMARK  104  A    between atoms: _249  and  _250
REMARK  105  A    between atoms: _249  and  _252
REMARK  106  A    between atoms: _252  and  _253
REMARK  107  A    between atoms: _253  and  _254
REMARK  108  A    between atoms: _254  and  _255
REMARK  109  A    between atoms: _264  and  _266
REMARK  110  A    between atoms: _266  and  _267
REMARK  111  A    between atoms: _266  and  _269
REMARK  112  A    between atoms: _269  and  _270
REMARK  113  A    between atoms: _275  and  _277
REMARK  114  A    between atoms: _277  and  _278
REMARK  115  A    between atoms: _277  and  _280
REMARK  116  A    between atoms: _280  and  _281
REMARK  117  A    between atoms: _281  and  _282
REMARK  118  A    between atoms: _282  and  _283
REMARK  119  A    between atoms: _292  and  _294
REMARK  120  A    between atoms: _294  and  _295
REMARK  121  A    between atoms: _294  and  _297
REMARK  122  A    between atoms: _297  and  _298
REMARK  123  A    between atoms: _301  and  _303
REMARK  124  A    between atoms: _303  and  _304
REMARK  125  A    between atoms: _303  and  _306
REMARK  126  A    between atoms: _306  and  _307
REMARK  127  A    between atoms: _310  and  _312
REMARK  128  A    between atoms: _312  and  _313
REMARK  129  A    between atoms: _312  and  _315
REMARK  130  A    between atoms: _315  and  _316
REMARK  131  A    between atoms: _319  and  _321
REMARK  132  A    between atoms: _321  and  _322
REMARK  133  A    between atoms: _321  and  _324
REMARK  134  A    between atoms: _324  and  _325
REMARK  135  A    between atoms: _328  and  _330
REMARK  136  A    between atoms: _330  and  _331
REMARK  137  A    between atoms: _333  and  _335
REMARK  138  A    between atoms: _335  and  _336
REMARK  139  A    between atoms: _339  and  _341
REMARK  140  A    between atoms: _341  and  _342
REMARK  141  A    between atoms: _341  and  _344
REMARK  142  A    between atoms: _344  and  _345
REMARK  143  A    between atoms: _348  and  _350
REMARK  144  A    between atoms: _350  and  _351
REMARK  145  A    between atoms: _350  and  _353
REMARK  146  A    between atoms: _353  and  _354
REMARK  147  A    between atoms: _357  and  _359
REMARK  148  A    between atoms: _359  and  _360
REMARK  149  A    between atoms: _359  and  _362
REMARK  150  A    between atoms: _362  and  _363
REMARK  151  A    between atoms: _366  and  _368
REMARK  152  A    between atoms: _368  and  _369
REMARK  153  A    between atoms: _368  and  _371
REMARK  154  A    between atoms: _374  and  _376
REMARK  155  A    between atoms: _376  and  _377
REMARK  156  A    between atoms: _376  and  _379
REMARK  157  A    between atoms: _379  and  _380
REMARK  158  A    between atoms: _380  and  _381
REMARK  159  A    between atoms: _381  and  _382
REMARK  160  A    between atoms: _382  and  _383
REMARK  161  A    between atoms: _387  and  _389
REMARK  162  A    between atoms: _389  and  _390
REMARK  163  A    between atoms: _389  and  _392
REMARK  164  A    between atoms: _392  and  _393
REMARK  165  A    between atoms: _393  and  _394
REMARK  166  A    between atoms: _396  and  _398
REMARK  167  A    between atoms: _398  and  _399
REMARK  168  A    between atoms: _398  and  _401
REMARK  169  A    between atoms: _401  and  _402
REMARK  170  A    between atoms: _405  and  _407
REMARK  171  A    between atoms: _407  and  _408
REMARK  172  A    between atoms: _410  and  _412
REMARK  173  A    between atoms: _412  and  _413
REMARK  174  A    between atoms: _415  and  _417
REMARK  175  A    between atoms: _417  and  _418
REMARK  176  A    between atoms: _417  and  _420
REMARK  177  A    between atoms: _420  and  _421
REMARK  178  A    between atoms: _424  and  _426
REMARK  179  A    between atoms: _426  and  _427
REMARK  180  A    between atoms: _429  and  _431
REMARK  181  A    between atoms: _431  and  _432
REMARK  182  A    between atoms: _434  and  _436
REMARK  183  A    between atoms: _436  and  _437
REMARK  184  A    between atoms: _436  and  _439
REMARK  185  A    between atoms: _439  and  _440
REMARK  186  A    between atoms: _446  and  _448
REMARK  187  A    between atoms: _448  and  _449
REMARK  188  A    between atoms: _448  and  _451
REMARK  189  A    between atoms: _451  and  _452
REMARK  190  A    between atoms: _455  and  _457
REMARK  191  A    between atoms: _457  and  _458
REMARK  192  A    between atoms: _457  and  _460
REMARK  193  A    between atoms: _463  and  _465
REMARK  194  A    between atoms: _465  and  _466
REMARK  195  A    between atoms: _465  and  _468
REMARK  196  A    between atoms: _468  and  _469
REMARK  197  A    between atoms: _473  and  _474
REMARK  198  A    between atoms: _479  and  _481
REMARK  199  A    between atoms: _481  and  _482
REMARK  200  A    between atoms: _481  and  _484
REMARK  201  A    between atoms: _484  and  _485
REMARK  202  A    between atoms: _489  and  _490
REMARK  203  A    between atoms: _495  and  _497
REMARK  204  A    between atoms: _497  and  _498
REMARK  205  A    between atoms: _497  and  _500
REMARK  206  A    between atoms: _503  and  _505
REMARK  207  A    between atoms: _505  and  _506
REMARK  208  A    between atoms: _505  and  _508
REMARK  209  A    between atoms: _508  and  _509
REMARK  210  A    between atoms: _514  and  _516
REMARK  211  A    between atoms: _516  and  _517
REMARK  212  A    between atoms: _516  and  _519
REMARK  213  A    between atoms: _519  and  _520
REMARK  214  A    between atoms: _523  and  _525
REMARK  215  A    between atoms: _525  and  _526
REMARK  216  A    between atoms: _525  and  _528
REMARK  217  A    between atoms: _528  and  _529
REMARK  218  A    between atoms: _532  and  _534
REMARK  219  A    between atoms: _534  and  _535
REMARK  220  A    between atoms: _537  and  _539
REMARK  221  A    between atoms: _539  and  _540
REMARK  222  A    between atoms: _539  and  _542
REMARK  223  A    between atoms: _542  and  _543
REMARK  224  A    between atoms: _543  and  _544
REMARK  225  A    between atoms: _544  and  _545
REMARK  226  A    between atoms: _554  and  _556
REMARK  227  A    between atoms: _556  and  _557
REMARK  228  A    between atoms: _556  and  _559
REMARK  229  A    between atoms: _559  and  _560
REMARK                            x       y       z     vdW  Elec       q    Type
REMARK                         _______ _______ _______ _____ _____    ______ ____
ROOT
ATOM      1  O   HOH     1       3.214  14.427  15.321  0.00  0.00    +0.000 OA
ENDROOT
TORSDOF 0
REMARK  Name = ../refined-set-2016/4kb9/4kb9_pocket.pdb
REMARK  229 active torsions:
REMARK  status: ('A' for Active; 'I' for Inactive)
REMARK    1  A    between atoms: _1  and  _3
REMARK    2  A    between atoms: _3  and  _4
REMARK    3  A    between atoms: _3  and  _6
REMARK    4  A    between atoms: _6  and  _7
REMARK    5  A    between atoms: _7  and  _8
REMARK    6  A    between atoms: _8  and  _9
REMARK    7  A    between atoms: _18  and  _20
REMARK    8  A    between atoms: _20  and  _21
REMARK    9  A    between atoms: _20  and  _23
REMARK   10  A    between atoms: _23  and  _24
REMARK   11  A    between atoms: _27  and  _29
REMARK   12  A    between atoms: _29  and  _30
REMARK   13  A    between atoms: _29  and  _32
REMARK   14  A    between atoms: _32  and  _33
REMARK   15  A    between atoms: _36  and  _38
REMARK   16  A    between atoms: _38  and  _39
REMARK   17  A    between atoms: _38  and  _41
REMARK   18  A    between atoms: _41  and  _42
REMARK   19  A    between atoms: _45  and  _47
REMARK   20  A    between atoms: _47  and  _48
REMARK   21  A    between atoms: _47  and  _50
REMARK   22  A    between atoms: _50  and  _51
REMARK   23  A    between atoms: _54  and  _56
REMARK   24  A    between atoms: _56  and  _57
REMARK   25  A    between atoms: _59  and  _61
REMARK   26  A    between atoms: _61  and  _62
REMARK   27  A    between atoms: _65  and  _67
REMARK   28  A    between atoms: _67  and  _68
REMARK   29  A    between atoms: _67  and  _70
REMARK   30  A    between atoms: _70  and  _71
REMARK   31  A    between atoms: _74  and  _76
REMARK   32  A    between atoms: _76  and  _77
REMARK   33  A    between atoms: _76  and  _79
REMARK   34  A    between atoms: _79  and  _80
REMARK   35  A    between atoms: _83  and  _85
REMARK   36  A    between atoms: _85  and  _86
REMARK   37  A    between atoms: _85  and  _88
REMARK   38  A    between atoms: _88  and  _89
REMARK   39  A    between atoms: _92  and  _94
REMARK   40  A    between atoms: _94  and  _95
REMARK   41  A    between atoms: _94  and  _97
REMARK   42  A    between atoms: _100  and  _102
REMARK   43  A    between atoms: _102  and  _103
REMARK   44  A    between atoms: _102  and  _105
REMARK   45  A    between atoms: _105  and  _106
REMARK   46  A    between atoms: _106  and  _107
REMARK   47  A    between atoms: _107  and  _108
REMARK   48  A    between atoms: _108  and  _109
REMARK   49  A    between atoms: _113  and  _115
REMARK   50  A    between atoms: _115  and  _116
REMARK   51  A    between atoms: _115  and  _118
REMARK   52  A    between atoms: _118  and  _119
REMARK   53  A    between atoms: _119  and  _120
REMARK   54  A    between atoms: _122  and  _124
REMARK   55  A    between atoms: _124  and  _125
REMARK   56  A    between atoms: _124  and  _127
REMARK   57  A    between atoms: _127  and  _128
REMARK   58  A    between atoms: _131  and  _133
REMARK   59  A    between atoms: _133  and  _134
REMARK   60  A    between atoms: _136  and  _138
REMARK   61  A    between atoms: _138  and  _139
REMARK   62  A    between atoms: _141  and  _143
REMARK   63  A    between atoms: _143  and  _144
REMARK   64  A    between atoms: _143  and  _146
REMARK   65  A    between atoms: _146  and  _147
REMARK   66  A    between atoms: _150  and  _152
REMARK   67  A    between atoms: _152  and  _153
REMARK   68  A    between atoms: _155  and  _157
REMARK   69  A    between atoms: _157  and  _158
REMARK   70  A    between atoms: _160  and  _162
REMARK   71  A    between atoms: _162  and  _163
REMARK   72  A    between atoms: _162  and  _165
REMARK   73  A    between atoms: _165  and  _166
REMARK   74  A    between atoms: _172  and  _174
REMARK   75  A    between atoms: _174  and  _175
REMARK   76  A    between atoms: _174  and  _177
REMARK   77  A    between atoms: _177  and  _178
REMARK   78  A    between atoms: _181  and  _183
REMARK   79  A    between atoms: _183  and  _184
REMARK   80  A    between atoms: _183  and  _186
REMARK   81  A    between atoms: _189  and  _191
REMARK   82  A    between atoms: _191  and  _192
REMARK   83  A    between atoms: _191  and  _194
REMARK   84  A    between atoms: _194  and  _195
REMARK   85  A    between atoms: _198  and  _200
REMARK   86  A    between atoms: _200  and  _201
REMARK   87  A    between atoms: _200  and  _203
REMARK   88  A    between atoms: _203  and  _204
REMARK   89  A    between atoms: _208  and  _209
REMARK   90  A    between atoms: _214  and  _216
REMARK   91  A    between atoms: _216  and  _217
REMARK   92  A    between atoms: _216  and  _219
REMARK   93  A    between atoms: _222  and  _224
REMARK   94  A    between atoms: _224  and  _225
REMARK   95  A    between atoms: _224  and  _227
REMARK   96  A    between atoms: _227  and  _228
REMARK   97  A    between atoms: _233  and  _235
REMARK   98  A    between atoms: _235  and  _236
REMARK   99  A    between atoms: _235  and  _238
REMARK  100  A    between atoms: _238  and  _239
REMARK  101  A    between atoms: _242  and  _244
REMARK  102  A    between atoms: _244  and  _245
REMARK  103  A    between atoms: _247  and  _249
REMARK  104  A    between atoms: _249  and  _250
REMARK  105  A    between atoms: _249  and  _252
REMARK  106  A    between atoms: _252  and  _253
REMARK  107  A    between atoms: _253  and  _254
REMARK  108  A    between atoms: _254  and  _255
REMARK  109  A    between atoms: _264  and  _266
REMARK  110  A    between atoms: _266  and  _267
REMARK  111  A    between atoms: _266  and  _269
REMARK  112  A    between atoms: _269  and  _270
REMARK  113  A    between atoms: _275  and  _277
REMARK  114  A    between atoms: _277  and  _278
REMARK  115  A    between atoms: _277  and  _280
REMARK  116  A    between atoms: _280  and  _281
REMARK  117  A    between atoms: _281  and  _282
REMARK  118  A    between atoms: _282  and  _283
REMARK  119  A    between atoms: _292  and  _294
REMARK  120  A    between atoms: _294  and  _295
REMARK  121  A    between atoms: _294  and  _297
REMARK  122  A    between atoms: _297  and  _298
REMARK  123  A    between atoms: _301  and  _303
REMARK  124  A    between atoms: _303  and  _304
REMARK  125  A    between atoms: _303  and  _306
REMARK  126  A    between atoms: _306  and  _307
REMARK  127  A    between atoms: _310  and  _312
REMARK  128  A    between atoms: _312  and  _313
REMARK  129  A    between atoms: _312  and  _315
REMARK  130  A    between atoms: _315  and  _316
REMARK  131  A    between atoms: _319  and  _321
REMARK  132  A    between atoms: _321  and  _322
REMARK  133  A    between atoms: _321  and  _324
REMARK  134  A    between atoms: _324  and  _325
REMARK  135  A    between atoms: _328  and  _330
REMARK  136  A    between atoms: _330  and  _331
REMARK  137  A    between atoms: _333  and  _335
REMARK  138  A    between atoms: _335  and  _336
REMARK  139  A    between atoms: _339  and  _341
REMARK  140  A    between atoms: _341  and  _342
REMARK  141  A    between atoms: _341  and  _344
REMARK  142  A    between atoms: _344  and  _345
REMARK  143  A    between atoms: _348  and  _350
REMARK  144  A    between atoms: _350  and  _351
REMARK  145  A    between atoms: _350  and  _353
REMARK  146  A    between atoms: _353  and  _354
REMARK  147  A    between atoms: _357  and  _359
REMARK  148  A    between atoms: _359  and  _360
REMARK  149  A    between atoms: _359  and  _362
REMARK  150  A    between atoms: _362  and  _363
REMARK  151  A    between atoms: _366  and  _368
REMARK  152  A    between atoms: _368  and  _369
REMARK  153  A    between atoms: _368  and  _371
REMARK  154  A    between atoms: _374  and  _376
REMARK  155  A    between atoms: _376  and  _377
REMARK  156  A    between atoms: _376  and  _379
REMARK  157  A    between atoms: _379  and  _380
REMARK  158  A    between atoms: _380  and  _381
REMARK  159  A    between atoms: _381  and  _382
REMARK  160  A    between atoms: _382  and  _383
REMARK  161  A    between atoms: _387  and  _389
REMARK  162  A    between atoms: _389  and  _390
REMARK  163  A    between atoms: _389  and  _392
REMARK  164  A    between atoms: _392  and  _393
REMARK  165  A    between atoms: _393  and  _394
REMARK  166  A    between atoms: _396  and  _398
REMARK  167  A    between atoms: _398  and  _399
REMARK  168  A    between atoms: _398  and  _401
REMARK  169  A    between atoms: _401  and  _402
REMARK  170  A    between atoms: _405  and  _407
REMARK  171  A    between atoms: _407  and  _408
REMARK  172  A    between atoms: _410  and  _412
REMARK  173  A    between atoms: _412  and  _413
REMARK  174  A    between atoms: _415  and  _417
REMARK  175  A    between atoms: _417  and  _418
REMARK  176  A    between atoms: _417  and  _420
REMARK  177  A    between atoms: _420  and  _421
REMARK  178  A    between atoms: _424  and  _426
REMARK  179  A    between atoms: _426  and  _427
REMARK  180  A    between atoms: _429  and  _431
REMARK  181  A    between atoms: _431  and  _432
REMARK  182  A    between atoms: _434  and  _436
REMARK  183  A    between atoms: _436  and  _437
REMARK  184  A    between atoms: _436  and  _439
REMARK  185  A    between atoms: _439  and  _440
REMARK  186  A    between atoms: _446  and  _448
REMARK  187  A    between atoms: _448  and  _449
REMARK  188  A    between atoms: _448  and  _451
REMARK  189  A    between atoms: _451  and  _452
REMARK  190  A    between atoms: _455  and  _457
REMARK  191  A    between atoms: _457  and  _458
REMARK  192  A    between atoms: _457  and  _460
REMARK  193  A    between atoms: _463  and  _465
REMARK  194  A    between atoms: _465  and  _466
REMARK  195  A    between atoms: _465  and  _468
REMARK  196  A    between atoms: _468  and  _469
REMARK  197  A    between atoms: _473  and  _474
REMARK  198  A    between atoms: _479  and  _481
REMARK  199  A    between atoms: _481  and  _482
REMARK  200  A    between atoms: _481  and  _484
REMARK  201  A    between atoms: _484  and  _485
REMARK  202  A    between atoms: _489  and  _490
REMARK  203  A    between atoms: _495  and  _497
REMARK  204  A    between atoms: _497  and  _498
REMARK  205  A    between atoms: _497  and  _500
REMARK  206  A    between atoms: _503  and  _505
REMARK  207  A    between atoms: _505  and  _506
REMARK  208  A    between atoms: _505  and  _508
REMARK  209  A    between atoms: _508  and  _509
REMARK  210  A    between atoms: _514  and  _516
REMARK  211  A    between atoms: _516  and  _517
REMARK  212  A    between atoms: _516  and  _519
REMARK  213  A    between atoms: _519  and  _520
REMARK  214  A    between atoms: _523  and  _525
REMARK  215  A    between atoms: _525  and  _526
REMARK  216  A    between atoms: _525  and  _528
REMARK  217  A    between atoms: _528  and  _529
REMARK  218  A    between atoms: _532  and  _534
REMARK  219  A    between atoms: _534  and  _535
REMARK  220  A    between atoms: _537  and  _539
REMARK  221  A    between atoms: _539  and  _540
REMARK  222  A    between atoms: _539  and  _542
REMARK  223  A    between atoms: _542  and  _543
REMARK  224  A    between atoms: _543  and  _544
REMARK  225  A    between atoms: _544  and  _545
REMARK  226  A    between atoms: _554  and  _556
REMARK  227  A    between atoms: _556  and  _557
REMARK  228  A    between atoms: _556  and  _559
REMARK  229  A    between atoms: _559  and  _560
REMARK                            x       y       z     vdW  Elec       q    Type
REMARK                         _______ _______ _______ _____ _____    ______ ____
ROOT
ATOM      1  O   HOH     1       1.072   9.509  11.275  0.00  0.00    +0.000 OA
ENDROOT
TORSDOF 0
REMARK  Name = ../refined-set-2016/4kb9/4kb9_pocket.pdb
REMARK  229 active torsions:
REMARK  status: ('A' for Active; 'I' for Inactive)
REMARK    1  A    between atoms: _1  and  _3
REMARK    2  A    between atoms: _3  and  _4
REMARK    3  A    between atoms: _3  and  _6
REMARK    4  A    between atoms: _6  and  _7
REMARK    5  A    between atoms: _7  and  _8
REMARK    6  A    between atoms: _8  and  _9
REMARK    7  A    between atoms: _18  and  _20
REMARK    8  A    between atoms: _20  and  _21
REMARK    9  A    between atoms: _20  and  _23
REMARK   10  A    between atoms: _23  and  _24
REMARK   11  A    between atoms: _27  and  _29
REMARK   12  A    between atoms: _29  and  _30
REMARK   13  A    between atoms: _29  and  _32
REMARK   14  A    between atoms: _32  and  _33
REMARK   15  A    between atoms: _36  and  _38
REMARK   16  A    between atoms: _38  and  _39
REMARK   17  A    between atoms: _38  and  _41
REMARK   18  A    between atoms: _41  and  _42
REMARK   19  A    between atoms: _45  and  _47
REMARK   20  A    between atoms: _47  and  _48
REMARK   21  A    between atoms: _47  and  _50
REMARK   22  A    between atoms: _50  and  _51
REMARK   23  A    between atoms: _54  and  _56
REMARK   24  A    between atoms: _56  and  _57
REMARK   25  A    between atoms: _59  and  _61
REMARK   26  A    between atoms: _61  and  _62
REMARK   27  A    between atoms: _65  and  _67
REMARK   28  A    between atoms: _67  and  _68
REMARK   29  A    between atoms: _67  and  _70
REMARK   30  A    between atoms: _70  and  _71
REMARK   31  A    between atoms: _74  and  _76
REMARK   32  A    between atoms: _76  and  _77
REMARK   33  A    between atoms: _76  and  _79
REMARK   34  A    between atoms: _79  and  _80
REMARK   35  A    between atoms: _83  and  _85
REMARK   36  A    between atoms: _85  and  _86
REMARK   37  A    between atoms: _85  and  _88
REMARK   38  A    between atoms: _88  and  _89
REMARK   39  A    between atoms: _92  and  _94
REMARK   40  A    between atoms: _94  and  _95
REMARK   41  A    between atoms: _94  and  _97
REMARK   42  A    between atoms: _100  and  _102
REMARK   43  A    between atoms: _102  and  _103
REMARK   44  A    between atoms: _102  and  _105
REMARK   45  A    between atoms: _105  and  _106
REMARK   46  A    between atoms: _106  and  _107
REMARK   47  A    between atoms: _107  and  _108
REMARK   48  A    between atoms: _108  and  _109
REMARK   49  A    between atoms: _113  and  _115
REMARK   50  A    between atoms: _115  and  _116
REMARK   51  A    between atoms: _115  and  _118
REMARK   52  A    between atoms: _118  and  _119
REMARK   53  A    between atoms: _119  and  _120
REMARK   54  A    between atoms: _122  and  _124
REMARK   55  A    between atoms: _124  and  _125
REMARK   56  A    between atoms: _124  and  _127
REMARK   57  A    between atoms: _127  and  _128
REMARK   58  A    between atoms: _131  and  _133
REMARK   59  A    between atoms: _133  and  _134
REMARK   60  A    between atoms: _136  and  _138
REMARK   61  A    between atoms: _138  and  _139
REMARK   62  A    between atoms: _141  and  _143
REMARK   63  A    between atoms: _143  and  _144
REMARK   64  A    between atoms: _143  and  _146
REMARK   65  A    between atoms: _146  and  _147
REMARK   66  A    between atoms: _150  and  _152
REMARK   67  A    between atoms: _152  and  _153
REMARK   68  A    between atoms: _155  and  _157
REMARK   69  A    between atoms: _157  and  _158
REMARK   70  A    between atoms: _160  and  _162
REMARK   71  A    between atoms: _162  and  _163
REMARK   72  A    between atoms: _162  and  _165
REMARK   73  A    between atoms: _165  and  _166
REMARK   74  A    between atoms: _172  and  _174
REMARK   75  A    between atoms: _174  and  _175
REMARK   76  A    between atoms: _174  and  _177
REMARK   77  A    between atoms: _177  and  _178
REMARK   78  A    between atoms: _181  and  _183
REMARK   79  A    between atoms: _183  and  _184
REMARK   80  A    between atoms: _183  and  _186
REMARK   81  A    between atoms: _189  and  _191
REMARK   82  A    between atoms: _191  and  _192
REMARK   83  A    between atoms: _191  and  _194
REMARK   84  A    between atoms: _194  and  _195
REMARK   85  A    between atoms: _198  and  _200
REMARK   86  A    between atoms: _200  and  _201
REMARK   87  A    between atoms: _200  and  _203
REMARK   88  A    between atoms: _203  and  _204
REMARK   89  A    between atoms: _208  and  _209
REMARK   90  A    between atoms: _214  and  _216
REMARK   91  A    between atoms: _216  and  _217
REMARK   92  A    between atoms: _216  and  _219
REMARK   93  A    between atoms: _222  and  _224
REMARK   94  A    between atoms: _224  and  _225
REMARK   95  A    between atoms: _224  and  _227
REMARK   96  A    between atoms: _227  and  _228
REMARK   97  A    between atoms: _233  and  _235
REMARK   98  A    between atoms: _235  and  _236
REMARK   99  A    between atoms: _235  and  _238
REMARK  100  A    between atoms: _238  and  _239
REMARK  101  A    between atoms: _242  and  _244
REMARK  102  A    between atoms: _244  and  _245
REMARK  103  A    between atoms: _247  and  _249
REMARK  104  A    between atoms: _249  and  _250
REMARK  105  A    between atoms: _249  and  _252
REMARK  106  A    between atoms: _252  and  _253
REMARK  107  A    between atoms: _253  and  _254
REMARK  108  A    between atoms: _254  and  _255
REMARK  109  A    between atoms: _264  and  _266
REMARK  110  A    between atoms: _266  and  _267
REMARK  111  A    between atoms: _266  and  _269
REMARK  112  A    between atoms: _269  and  _270
REMARK  113  A    between atoms: _275  and  _277
REMARK  114  A    between atoms: _277  and  _278
REMARK  115  A    between atoms: _277  and  _280
REMARK  116  A    between atoms: _280  and  _281
REMARK  117  A    between atoms: _281  and  _282
REMARK  118  A    between atoms: _282  and  _283
REMARK  119  A    between atoms: _292  and  _294
REMARK  120  A    between atoms: _294  and  _295
REMARK  121  A    between atoms: _294  and  _297
REMARK  122  A    between atoms: _297  and  _298
REMARK  123  A    between atoms: _301  and  _303
REMARK  124  A    between atoms: _303  and  _304
REMARK  125  A    between atoms: _303  and  _306
REMARK  126  A    between atoms: _306  and  _307
REMARK  127  A    between atoms: _310  and  _312
REMARK  128  A    between atoms: _312  and  _313
REMARK  129  A    between atoms: _312  and  _315
REMARK  130  A    between atoms: _315  and  _316
REMARK  131  A    between atoms: _319  and  _321
REMARK  132  A    between atoms: _321  and  _322
REMARK  133  A    between atoms: _321  and  _324
REMARK  134  A    between atoms: _324  and  _325
REMARK  135  A    between atoms: _328  and  _330
REMARK  136  A    between atoms: _330  and  _331
REMARK  137  A    between atoms: _333  and  _335
REMARK  138  A    between atoms: _335  and  _336
REMARK  139  A    between atoms: _339  and  _341
REMARK  140  A    between atoms: _341  and  _342
REMARK  141  A    between atoms: _341  and  _344
REMARK  142  A    between atoms: _344  and  _345
REMARK  143  A    between atoms: _348  and  _350
REMARK  144  A    between atoms: _350  and  _351
REMARK  145  A    between atoms: _350  and  _353
REMARK  146  A    between atoms: _353  and  _354
REMARK  147  A    between atoms: _357  and  _359
REMARK  148  A    between atoms: _359  and  _360
REMARK  149  A    between atoms: _359  and  _362
REMARK  150  A    between atoms: _362  and  _363
REMARK  151  A    between atoms: _366  and  _368
REMARK  152  A    between atoms: _368  and  _369
REMARK  153  A    between atoms: _368  and  _371
REMARK  154  A    between atoms: _374  and  _376
REMARK  155  A    between atoms: _376  and  _377
REMARK  156  A    between atoms: _376  and  _379
REMARK  157  A    between atoms: _379  and  _380
REMARK  158  A    between atoms: _380  and  _381
REMARK  159  A    between atoms: _381  and  _382
REMARK  160  A    between atoms: _382  and  _383
REMARK  161  A    between atoms: _387  and  _389
REMARK  162  A    between atoms: _389  and  _390
REMARK  163  A    between atoms: _389  and  _392
REMARK  164  A    between atoms: _392  and  _393
REMARK  165  A    between atoms: _393  and  _394
REMARK  166  A    between atoms: _396  and  _398
REMARK  167  A    between atoms: _398  and  _399
REMARK  168  A    between atoms: _398  and  _401
REMARK  169  A    between atoms: _401  and  _402
REMARK  170  A    between atoms: _405  and  _407
REMARK  171  A    between atoms: _407  and  _408
REMARK  172  A    between atoms: _410  and  _412
REMARK  173  A    between atoms: _412  and  _413
REMARK  174  A    between atoms: _415  and  _417
REMARK  175  A    between atoms: _417  and  _418
REMARK  176  A    between atoms: _417  and  _420
REMARK  177  A    between atoms: _420  and  _421
REMARK  178  A    between atoms: _424  and  _426
REMARK  179  A    between atoms: _426  and  _427
REMARK  180  A    between atoms: _429  and  _431
REMARK  181  A    between atoms: _431  and  _432
REMARK  182  A    between atoms: _434  and  _436
REMARK  183  A    between atoms: _436  and  _437
REMARK  184  A    between atoms: _436  and  _439
REMARK  185  A    between atoms: _439  and  _440
REMARK  186  A    between atoms: _446  and  _448
REMARK  187  A    between atoms: _448  and  _449
REMARK  188  A    between atoms: _448  and  _451
REMARK  189  A    between atoms: _451  and  _452
REMARK  190  A    between atoms: _455  and  _457
REMARK  191  A    between atoms: _457  and  _458
REMARK  192  A    between atoms: _457  and  _460
REMARK  193  A    between atoms: _463  and  _465
REMARK  194  A    between atoms: _465  and  _466
REMARK  195  A    between atoms: _465  and  _468
REMARK  196  A    between atoms: _468  and  _469
REMARK  197  A    between atoms: _473  and  _474
REMARK  198  A    between atoms: _479  and  _481
REMARK  199  A    between atoms: _481  and  _482
REMARK  200  A    between atoms: _481  and  _484
REMARK  201  A    between atoms: _484  and  _485
REMARK  202  A    between atoms: _489  and  _490
REMARK  203  A    between atoms: _495  and  _497
REMARK  204  A    between atoms: _497  and  _498
REMARK  205  A    between atoms: _497  and  _500
REMARK  206  A    between atoms: _503  and  _505
REMARK  207  A    between atoms: _505  and  _506
REMARK  208  A    between atoms: _505  and  _508
REMARK  209  A    between atoms: _508  and  _509
REMARK  210  A    between atoms: _514  and  _516
REMARK  211  A    between atoms: _516  and  _517
REMARK  212  A    between atoms: _516  and  _519
REMARK  213  A    between atoms: _519  and  _520
REMARK  214  A    between atoms: _523  and  _525
REMARK  215  A    between atoms: _525  and  _526
REMARK  216  A    between atoms: _525  and  _528
REMARK  217  A    between atoms: _528  and  _529
REMARK  218  A    between atoms: _532  and  _534
REMARK  219  A    between atoms: _534  and  _535
REMARK  220  A    between atoms: _537  and  _539
REMARK  221  A    between atoms: _539  and  _540
REMARK  222  A    between atoms: _539  and  _542
REMARK  223  A    between atoms: _542  and  _543
REMARK  224  A    between atoms: _543  and  _544
REMARK  225  A    between atoms: _544  and  _545
REMARK  226  A    between atoms: _554  and  _556
REMARK  227  A    between atoms: _556  and  _557
REMARK  228  A    between atoms: _556  and  _559
REMARK  229  A    between atoms: _559  and  _560
REMARK                            x       y       z     vdW  Elec       q    Type
REMARK                         _______ _______ _______ _____ _____    ______ ____
ROOT
ATOM      1  O   HOH     1       4.367   9.848  15.869  0.00  0.00    +0.000 OA
ENDROOT
TORSDOF 0
REMARK  Name = ../refined-set-2016/4kb9/4kb9_pocket.pdb
REMARK  229 active torsions:
REMARK  status: ('A' for Active; 'I' for Inactive)
REMARK    1  A    between atoms: _1  and  _3
REMARK    2  A    between atoms: _3  and  _4
REMARK    3  A    between atoms: _3  and  _6
REMARK    4  A    between atoms: _6  and  _7
REMARK    5  A    between atoms: _7  and  _8
REMARK    6  A    between atoms: _8  and  _9
REMARK    7  A    between atoms: _18  and  _20
REMARK    8  A    between atoms: _20  and  _21
REMARK    9  A    between atoms: _20  and  _23
REMARK   10  A    between atoms: _23  and  _24
REMARK   11  A    between atoms: _27  and  _29
REMARK   12  A    between atoms: _29  and  _30
REMARK   13  A    between atoms: _29  and  _32
REMARK   14  A    between atoms: _32  and  _33
REMARK   15  A    between atoms: _36  and  _38
REMARK   16  A    between atoms: _38  and  _39
REMARK   17  A    between atoms: _38  and  _41
REMARK   18  A    between atoms: _41  and  _42
REMARK   19  A    between atoms: _45  and  _47
REMARK   20  A    between atoms: _47  and  _48
REMARK   21  A    between atoms: _47  and  _50
REMARK   22  A    between atoms: _50  and  _51
REMARK   23  A    between atoms: _54  and  _56
REMARK   24  A    between atoms: _56  and  _57
REMARK   25  A    between atoms: _59  and  _61
REMARK   26  A    between atoms: _61  and  _62
REMARK   27  A    between atoms: _65  and  _67
REMARK   28  A    between atoms: _67  and  _68
REMARK   29  A    between atoms: _67  and  _70
REMARK   30  A    between atoms: _70  and  _71
REMARK   31  A    between atoms: _74  and  _76
REMARK   32  A    between atoms: _76  and  _77
REMARK   33  A    between atoms: _76  and  _79
REMARK   34  A    between atoms: _79  and  _80
REMARK   35  A    between atoms: _83  and  _85
REMARK   36  A    between atoms: _85  and  _86
REMARK   37  A    between atoms: _85  and  _88
REMARK   38  A    between atoms: _88  and  _89
REMARK   39  A    between atoms: _92  and  _94
REMARK   40  A    between atoms: _94  and  _95
REMARK   41  A    between atoms: _94  and  _97
REMARK   42  A    between atoms: _100  and  _102
REMARK   43  A    between atoms: _102  and  _103
REMARK   44  A    between atoms: _102  and  _105
REMARK   45  A    between atoms: _105  and  _106
REMARK   46  A    between atoms: _106  and  _107
REMARK   47  A    between atoms: _107  and  _108
REMARK   48  A    between atoms: _108  and  _109
REMARK   49  A    between atoms: _113  and  _115
REMARK   50  A    between atoms: _115  and  _116
REMARK   51  A    between atoms: _115  and  _118
REMARK   52  A    between atoms: _118  and  _119
REMARK   53  A    between atoms: _119  and  _120
REMARK   54  A    between atoms: _122  and  _124
REMARK   55  A    between atoms: _124  and  _125
REMARK   56  A    between atoms: _124  and  _127
REMARK   57  A    between atoms: _127  and  _128
REMARK   58  A    between atoms: _131  and  _133
REMARK   59  A    between atoms: _133  and  _134
REMARK   60  A    between atoms: _136  and  _138
REMARK   61  A    between atoms: _138  and  _139
REMARK   62  A    between atoms: _141  and  _143
REMARK   63  A    between atoms: _143  and  _144
REMARK   64  A    between atoms: _143  and  _146
REMARK   65  A    between atoms: _146  and  _147
REMARK   66  A    between atoms: _150  and  _152
REMARK   67  A    between atoms: _152  and  _153
REMARK   68  A    between atoms: _155  and  _157
REMARK   69  A    between atoms: _157  and  _158
REMARK   70  A    between atoms: _160  and  _162
REMARK   71  A    between atoms: _162  and  _163
REMARK   72  A    between atoms: _162  and  _165
REMARK   73  A    between atoms: _165  and  _166
REMARK   74  A    between atoms: _172  and  _174
REMARK   75  A    between atoms: _174  and  _175
REMARK   76  A    between atoms: _174  and  _177
REMARK   77  A    between atoms: _177  and  _178
REMARK   78  A    between atoms: _181  and  _183
REMARK   79  A    between atoms: _183  and  _184
REMARK   80  A    between atoms: _183  and  _186
REMARK   81  A    between atoms: _189  and  _191
REMARK   82  A    between atoms: _191  and  _192
REMARK   83  A    between atoms: _191  and  _194
REMARK   84  A    between atoms: _194  and  _195
REMARK   85  A    between atoms: _198  and  _200
REMARK   86  A    between atoms: _200  and  _201
REMARK   87  A    between atoms: _200  and  _203
REMARK   88  A    between atoms: _203  and  _204
REMARK   89  A    between atoms: _208  and  _209
REMARK   90  A    between atoms: _214  and  _216
REMARK   91  A    between atoms: _216  and  _217
REMARK   92  A    between atoms: _216  and  _219
REMARK   93  A    between atoms: _222  and  _224
REMARK   94  A    between atoms: _224  and  _225
REMARK   95  A    between atoms: _224  and  _227
REMARK   96  A    between atoms: _227  and  _228
REMARK   97  A    between atoms: _233  and  _235
REMARK   98  A    between atoms: _235  and  _236
REMARK   99  A    between atoms: _235  and  _238
REMARK  100  A    between atoms: _238  and  _239
REMARK  101  A    between atoms: _242  and  _244
REMARK  102  A    between atoms: _244  and  _245
REMARK  103  A    between atoms: _247  and  _249
REMARK  104  A    between atoms: _249  and  _250
REMARK  105  A    between atoms: _249  and  _252
REMARK  106  A    between atoms: _252  and  _253
REMARK  107  A    between atoms: _253  and  _254
REMARK  108  A    between atoms: _254  and  _255
REMARK  109  A    between atoms: _264  and  _266
REMARK  110  A    between atoms: _266  and  _267
REMARK  111  A    between atoms: _266  and  _269
REMARK  112  A    between atoms: _269  and  _270
REMARK  113  A    between atoms: _275  and  _277
REMARK  114  A    between atoms: _277  and  _278
REMARK  115  A    between atoms: _277  and  _280
REMARK  116  A    between atoms: _280  and  _281
REMARK  117  A    between atoms: _281  and  _282
REMARK  118  A    between atoms: _282  and  _283
REMARK  119  A    between atoms: _292  and  _294
REMARK  120  A    between atoms: _294  and  _295
REMARK  121  A    between atoms: _294  and  _297
REMARK  122  A    between atoms: _297  and  _298
REMARK  123  A    between atoms: _301  and  _303
REMARK  124  A    between atoms: _303  and  _304
REMARK  125  A    between atoms: _303  and  _306
REMARK  126  A    between atoms: _306  and  _307
REMARK  127  A    between atoms: _310  and  _312
REMARK  128  A    between atoms: _312  and  _313
REMARK  129  A    between atoms: _312  and  _315
REMARK  130  A    between atoms: _315  and  _316
REMARK  131  A    between atoms: _319  and  _321
REMARK  132  A    between atoms: _321  and  _322
REMARK  133  A    between atoms: _321  and  _324
REMARK  134  A    between atoms: _324  and  _325
REMARK  135  A    between atoms: _328  and  _330
REMARK  136  A    between atoms: _330  and  _331
REMARK  137  A    between atoms: _333  and  _335
REMARK  138  A    between atoms: _335  and  _336
REMARK  139  A    between atoms: _339  and  _341
REMARK  140  A    between atoms: _341  and  _342
REMARK  141  A    between atoms: _341  and  _344
REMARK  142  A    between atoms: _344  and  _345
REMARK  143  A    between atoms: _348  and  _350
REMARK  144  A    between atoms: _350  and  _351
REMARK  145  A    between atoms: _350  and  _353
REMARK  146  A    between atoms: _353  and  _354
REMARK  147  A    between atoms: _357  and  _359
REMARK  148  A    between atoms: _359  and  _360
REMARK  149  A    between atoms: _359  and  _362
REMARK  150  A    between atoms: _362  and  _363
REMARK  151  A    between atoms: _366  and  _368
REMARK  152  A    between atoms: _368  and  _369
REMARK  153  A    between atoms: _368  and  _371
REMARK  154  A    between atoms: _374  and  _376
REMARK  155  A    between atoms: _376  and  _377
REMARK  156  A    between atoms: _376  and  _379
REMARK  157  A    between atoms: _379  and  _380
REMARK  158  A    between atoms: _380  and  _381
REMARK  159  A    between atoms: _381  and  _382
REMARK  160  A    between atoms: _382  and  _383
REMARK  161  A    between atoms: _387  and  _389
REMARK  162  A    between atoms: _389  and  _390
REMARK  163  A    between atoms: _389  and  _392
REMARK  164  A    between atoms: _392  and  _393
REMARK  165  A    between atoms: _393  and  _394
REMARK  166  A    between atoms: _396  and  _398
REMARK  167  A    between atoms: _398  and  _399
REMARK  168  A    between atoms: _398  and  _401
REMARK  169  A    between atoms: _401  and  _402
REMARK  170  A    between atoms: _405  and  _407
REMARK  171  A    between atoms: _407  and  _408
REMARK  172  A    between atoms: _410  and  _412
REMARK  173  A    between atoms: _412  and  _413
REMARK  174  A    between atoms: _415  and  _417
REMARK  175  A    between atoms: _417  and  _418
REMARK  176  A    between atoms: _417  and  _420
REMARK  177  A    between atoms: _420  and  _421
REMARK  178  A    between atoms: _424  and  _426
REMARK  179  A    between atoms: _426  and  _427
REMARK  180  A    between atoms: _429  and  _431
REMARK  181  A    between atoms: _431  and  _432
REMARK  182  A    between atoms: _434  and  _436
REMARK  183  A    between atoms: _436  and  _437
REMARK  184  A    between atoms: _436  and  _439
REMARK  185  A    between atoms: _439  and  _440
REMARK  186  A    between atoms: _446  and  _448
REMARK  187  A    between atoms: _448  and  _449
REMARK  188  A    between atoms: _448  and  _451
REMARK  189  A    between atoms: _451  and  _452
REMARK  190  A    between atoms: _455  and  _457
REMARK  191  A    between atoms: _457  and  _458
REMARK  192  A    between atoms: _457  and  _460
REMARK  193  A    between atoms: _463  and  _465
REMARK  194  A    between atoms: _465  and  _466
REMARK  195  A    between atoms: _465  and  _468
REMARK  196  A    between atoms: _468  and  _469
REMARK  197  A    between atoms: _473  and  _474
REMARK  198  A    between atoms: _479  and  _481
REMARK  199  A    between atoms: _481  and  _482
REMARK  200  A    between atoms: _481  and  _484
REMARK  201  A    between atoms: _484  and  _485
REMARK  202  A    between atoms: _489  and  _490
REMARK  203  A    between atoms: _495  and  _497
REMARK  204  A    between atoms: _497  and  _498
REMARK  205  A    between atoms: _497  and  _500
REMARK  206  A    between atoms: _503  and  _505
REMARK  207  A    between atoms: _505  and  _506
REMARK  208  A    between atoms: _505  and  _508
REMARK  209  A    between atoms: _508  and  _509
REMARK  210  A    between atoms: _514  and  _516
REMARK  211  A    between atoms: _516  and  _517
REMARK  212  A    between atoms: _516  and  _519
REMARK  213  A    between atoms: _519  and  _520
REMARK  214  A    between atoms: _523  and  _525
REMARK  215  A    between atoms: _525  and  _526
REMARK  216  A    between atoms: _525  and  _528
REMARK  217  A    between atoms: _528  and  _529
REMARK  218  A    between atoms: _532  and  _534
REMARK  219  A    between atoms: _534  and  _535
REMARK  220  A    between atoms: _537  and  _539
REMARK  221  A    between atoms: _539  and  _540
REMARK  222  A    between atoms: _539  and  _542
REMARK  223  A    between atoms: _542  and  _543
REMARK  224  A    between atoms: _543  and  _544
REMARK  225  A    between atoms: _544  and  _545
REMARK  226  A    between atoms: _554  and  _556
REMARK  227  A    between atoms: _556  and  _557
REMARK  228  A    between atoms: _556  and  _559
REMARK  229  A    between atoms: _559  and  _560
REMARK                            x       y       z     vdW  Elec       q    Type
REMARK                         _______ _______ _______ _____ _____    ______ ____
ROOT
ATOM      1  O   HOH     1       4.853   9.283  20.078  0.00  0.00    +0.000 OA
ENDROOT
TORSDOF 0
