REMARK  Name = ../refined-set-2016/3oyw/3oyw_pocket.pdb
REMARK  102 active torsions:
REMARK  status: ('A' for Active; 'I' for Inactive)
REMARK    1  A    between atoms: _1  and  _3
REMARK    2  A    between atoms: _3  and  _4
REMARK    3  A    between atoms: _3  and  _6
REMARK    4  A    between atoms: _6  and  _7
REMARK    5  A    between atoms: _9  and  _11
REMARK    6  A    between atoms: _11  and  _12
REMARK    7  A    between atoms: _11  and  _14
REMARK    8  A    between atoms: _14  and  _15
REMARK    9  A    between atoms: _21  and  _23
REMARK   10  A    between atoms: _23  and  _24
REMARK   11  A    between atoms: _23  and  _26
REMARK   12  A    between atoms: _29  and  _31
REMARK   13  A    between atoms: _31  and  _32
REMARK   14  A    between atoms: _31  and  _34
REMARK   15  A    between atoms: _34  and  _35
REMARK   16  A    between atoms: _40  and  _42
REMARK   17  A    between atoms: _42  and  _43
REMARK   18  A    between atoms: _42  and  _45
REMARK   19  A    between atoms: _45  and  _46
REMARK   20  A    between atoms: _51  and  _53
REMARK   21  A    between atoms: _53  and  _54
REMARK   22  A    between atoms: _53  and  _56
REMARK   23  A    between atoms: _56  and  _57
REMARK   24  A    between atoms: _63  and  _65
REMARK   25  A    between atoms: _65  and  _66
REMARK   26  A    between atoms: _65  and  _68
REMARK   27  A    between atoms: _68  and  _69
REMARK   28  A    between atoms: _74  and  _76
REMARK   29  A    between atoms: _76  and  _77
REMARK   30  A    between atoms: _76  and  _79
REMARK   31  A    between atoms: _79  and  _80
REMARK   32  A    between atoms: _80  and  _81
REMARK   33  A    between atoms: _81  and  _82
REMARK   34  A    between atoms: _91  and  _93
REMARK   35  A    between atoms: _93  and  _94
REMARK   36  A    between atoms: _97  and  _99
REMARK   37  A    between atoms: _99  and  _100
REMARK   38  A    between atoms: _99  and  _102
REMARK   39  A    between atoms: _102  and  _103
REMARK   40  A    between atoms: _108  and  _110
REMARK   41  A    between atoms: _110  and  _111
REMARK   42  A    between atoms: _113  and  _115
REMARK   43  A    between atoms: _115  and  _116
REMARK   44  A    between atoms: _115  and  _118
REMARK   45  A    between atoms: _118  and  _119
REMARK   46  A    between atoms: _122  and  _124
REMARK   47  A    between atoms: _124  and  _125
REMARK   48  A    between atoms: _124  and  _127
REMARK   49  A    between atoms: _130  and  _132
REMARK   50  A    between atoms: _132  and  _133
REMARK   51  A    between atoms: _132  and  _135
REMARK   52  A    between atoms: _137  and  _139
REMARK   53  A    between atoms: _139  and  _140
REMARK   54  A    between atoms: _139  and  _142
REMARK   55  A    between atoms: _142  and  _143
REMARK   56  A    between atoms: _148  and  _150
REMARK   57  A    between atoms: _150  and  _151
REMARK   58  A    between atoms: _150  and  _153
REMARK   59  A    between atoms: _153  and  _154
REMARK   60  A    between atoms: _156  and  _158
REMARK   61  A    between atoms: _158  and  _159
REMARK   62  A    between atoms: _158  and  _161
REMARK   63  A    between atoms: _161  and  _162
REMARK   64  A    between atoms: _162  and  _163
REMARK   65  A    between atoms: _163  and  _164
REMARK   66  A    between atoms: _164  and  _165
REMARK   67  A    between atoms: _169  and  _171
REMARK   68  A    between atoms: _171  and  _172
REMARK   69  A    between atoms: _171  and  _174
REMARK   70  A    between atoms: _174  and  _175
REMARK   71  A    between atoms: _185  and  _187
REMARK   72  A    between atoms: _187  and  _188
REMARK   73  A    between atoms: _190  and  _192
REMARK   74  A    between atoms: _192  and  _193
REMARK   75  A    between atoms: _192  and  _195
REMARK   76  A    between atoms: _195  and  _196
REMARK   77  A    between atoms: _199  and  _201
REMARK   78  A    between atoms: _201  and  _202
REMARK   79  A    between atoms: _201  and  _204
REMARK   80  A    between atoms: _204  and  _205
REMARK   81  A    between atoms: _205  and  _206
REMARK   82  A    between atoms: _209  and  _211
REMARK   83  A    between atoms: _211  and  _212
REMARK   84  A    between atoms: _211  and  _214
REMARK   85  A    between atoms: _214  and  _215
REMARK   86  A    between atoms: _215  and  _216
REMARK   87  A    between atoms: _221  and  _223
REMARK   88  A    between atoms: _223  and  _224
REMARK   89  A    between atoms: _223  and  _226
REMARK   90  A    between atoms: _226  and  _227
REMARK   91  A    between atoms: _227  and  _228
REMARK   92  A    between atoms: _228  and  _229
REMARK   93  A    between atoms: _238  and  _240
REMARK   94  A    between atoms: _240  and  _241
REMARK   95  A    between atoms: _240  and  _243
REMARK   96  A    between atoms: _243  and  _244
REMARK   97  A    between atoms: _244  and  _245
REMARK   98  A    between atoms: _245  and  _246
REMARK   99  A    between atoms: _255  and  _257
REMARK  100  A    between atoms: _257  and  _258
REMARK  101  A    between atoms: _257  and  _260
REMARK  102  A    between atoms: _260  and  _261
REMARK                            x       y       z     vdW  Elec       q    Type
REMARK                         _______ _______ _______ _____ _____    ______ ____
ROOT
ATOM      1  CA  PHE A   2      20.079   7.623   8.648  0.00  0.00    +0.153 C 
ENDROOT
BRANCH   1   3
ATOM      2  C   SER A   1      21.772   6.265   7.522  0.00  0.00    +0.241 C 
ATOM      3  N   PHE A   2      20.545   6.379   8.036  0.00  0.00    -0.297 N 
ATOM      4  H   PHE A   2      19.903   5.561   8.000  0.00  0.00    +0.150 HD
ATOM      5  O   SER A   1      22.524   7.228   7.338  0.00  0.00    -0.274 OA
BRANCH   2   6
ATOM      6  CA  SER A   1      22.217   4.859   7.145  0.00  0.00    +0.174 C 
BRANCH   6   7
ATOM      7  N   SER A   1      23.359   4.906   6.239  0.00  0.00    -0.236 NA
ATOM      8  H   SER A   1      23.781   5.832   6.024  0.00  0.00    +0.142 HD
ENDBRANCH   6   7
BRANCH   6   9
ATOM      9  CB  SER A   1      22.565   4.086   8.416  0.00  0.00    +0.163 C 
BRANCH   9  10
ATOM     10  OG  SER A   1      23.389   4.860   9.255  0.00  0.00    -0.380 OA
ATOM     11  H   SER A   1      23.604   4.344  10.072  0.00  0.00    +0.211 HD
ENDBRANCH   9  10
ENDBRANCH   6   9
ENDBRANCH   2   6
ENDBRANCH   1   3
BRANCH   1  12
ATOM     12  C   PHE A   2      19.158   7.342   9.850  0.00  0.00    +0.241 C 
ATOM     13  N   VAL A   3      18.822   8.393  10.595  0.00  0.00    -0.298 N 
ATOM     14  H   VAL A   3      19.009   9.348  10.229  0.00  0.00    +0.150 HD
ATOM     15  O   PHE A   2      18.776   6.194  10.098  0.00  0.00    -0.273 OA
BRANCH  13  16
ATOM     16  CA  VAL A   3      18.199   8.251  11.909  0.00  0.00    +0.137 C 
BRANCH  16  17
ATOM     17  CB  VAL A   3      19.269   8.389  13.042  0.00  0.00    +0.026 C 
ATOM     18  CG2 VAL A   3      18.625   8.551  14.405  0.00  0.00    +0.002 C 
ATOM     19  CG1 VAL A   3      20.209   7.183  13.044  0.00  0.00    +0.002 C 
ENDBRANCH  16  17
BRANCH  16  20
ATOM     20  C   VAL A   3      17.107   9.280  12.120  0.00  0.00    +0.227 C 
ATOM     21  O   VAL A   3      17.327  10.466  11.910  0.00  0.00    -0.286 OA
ENDBRANCH  16  20
ENDBRANCH  13  16
ENDBRANCH   1  12
BRANCH   1  22
ATOM     22  CB  PHE A   2      19.451   8.581   7.615  0.00  0.00    +0.055 C 
BRANCH  22  23
ATOM     23  CG  PHE A   2      18.063   8.196   7.164  0.00  0.00    -0.020 A 
ATOM     24  CD2 PHE A   2      16.935   8.758   7.772  0.00  0.00    -0.004 A 
ATOM     25  CE2 PHE A   2      15.636   8.411   7.350  0.00  0.00    -0.000 A 
ATOM     26  CZ  PHE A   2      15.466   7.493   6.310  0.00  0.00    -0.000 A 
ATOM     27  CE1 PHE A   2      16.587   6.927   5.697  0.00  0.00    -0.000 A 
ATOM     28  CD1 PHE A   2      17.878   7.285   6.124  0.00  0.00    -0.004 A 
ENDBRANCH  22  23
ENDBRANCH   1  22
TORSDOF 11
REMARK  Name = ../refined-set-2016/3oyw/3oyw_pocket.pdb
REMARK  102 active torsions:
REMARK  status: ('A' for Active; 'I' for Inactive)
REMARK    1  A    between atoms: _1  and  _3
REMARK    2  A    between atoms: _3  and  _4
REMARK    3  A    between atoms: _3  and  _6
REMARK    4  A    between atoms: _6  and  _7
REMARK    5  A    between atoms: _9  and  _11
REMARK    6  A    between atoms: _11  and  _12
REMARK    7  A    between atoms: _11  and  _14
REMARK    8  A    between atoms: _14  and  _15
REMARK    9  A    between atoms: _21  and  _23
REMARK   10  A    between atoms: _23  and  _24
REMARK   11  A    between atoms: _23  and  _26
REMARK   12  A    between atoms: _29  and  _31
REMARK   13  A    between atoms: _31  and  _32
REMARK   14  A    between atoms: _31  and  _34
REMARK   15  A    between atoms: _34  and  _35
REMARK   16  A    between atoms: _40  and  _42
REMARK   17  A    between atoms: _42  and  _43
REMARK   18  A    between atoms: _42  and  _45
REMARK   19  A    between atoms: _45  and  _46
REMARK   20  A    between atoms: _51  and  _53
REMARK   21  A    between atoms: _53  and  _54
REMARK   22  A    between atoms: _53  and  _56
REMARK   23  A    between atoms: _56  and  _57
REMARK   24  A    between atoms: _63  and  _65
REMARK   25  A    between atoms: _65  and  _66
REMARK   26  A    between atoms: _65  and  _68
REMARK   27  A    between atoms: _68  and  _69
REMARK   28  A    between atoms: _74  and  _76
REMARK   29  A    between atoms: _76  and  _77
REMARK   30  A    between atoms: _76  and  _79
REMARK   31  A    between atoms: _79  and  _80
REMARK   32  A    between atoms: _80  and  _81
REMARK   33  A    between atoms: _81  and  _82
REMARK   34  A    between atoms: _91  and  _93
REMARK   35  A    between atoms: _93  and  _94
REMARK   36  A    between atoms: _97  and  _99
REMARK   37  A    between atoms: _99  and  _100
REMARK   38  A    between atoms: _99  and  _102
REMARK   39  A    between atoms: _102  and  _103
REMARK   40  A    between atoms: _108  and  _110
REMARK   41  A    between atoms: _110  and  _111
REMARK   42  A    between atoms: _113  and  _115
REMARK   43  A    between atoms: _115  and  _116
REMARK   44  A    between atoms: _115  and  _118
REMARK   45  A    between atoms: _118  and  _119
REMARK   46  A    between atoms: _122  and  _124
REMARK   47  A    between atoms: _124  and  _125
REMARK   48  A    between atoms: _124  and  _127
REMARK   49  A    between atoms: _130  and  _132
REMARK   50  A    between atoms: _132  and  _133
REMARK   51  A    between atoms: _132  and  _135
REMARK   52  A    between atoms: _137  and  _139
REMARK   53  A    between atoms: _139  and  _140
REMARK   54  A    between atoms: _139  and  _142
REMARK   55  A    between atoms: _142  and  _143
REMARK   56  A    between atoms: _148  and  _150
REMARK   57  A    between atoms: _150  and  _151
REMARK   58  A    between atoms: _150  and  _153
REMARK   59  A    between atoms: _153  and  _154
REMARK   60  A    between atoms: _156  and  _158
REMARK   61  A    between atoms: _158  and  _159
REMARK   62  A    between atoms: _158  and  _161
REMARK   63  A    between atoms: _161  and  _162
REMARK   64  A    between atoms: _162  and  _163
REMARK   65  A    between atoms: _163  and  _164
REMARK   66  A    between atoms: _164  and  _165
REMARK   67  A    between atoms: _169  and  _171
REMARK   68  A    between atoms: _171  and  _172
REMARK   69  A    between atoms: _171  and  _174
REMARK   70  A    between atoms: _174  and  _175
REMARK   71  A    between atoms: _185  and  _187
REMARK   72  A    between atoms: _187  and  _188
REMARK   73  A    between atoms: _190  and  _192
REMARK   74  A    between atoms: _192  and  _193
REMARK   75  A    between atoms: _192  and  _195
REMARK   76  A    between atoms: _195  and  _196
REMARK   77  A    between atoms: _199  and  _201
REMARK   78  A    between atoms: _201  and  _202
REMARK   79  A    between atoms: _201  and  _204
REMARK   80  A    between atoms: _204  and  _205
REMARK   81  A    between atoms: _205  and  _206
REMARK   82  A    between atoms: _209  and  _211
REMARK   83  A    between atoms: _211  and  _212
REMARK   84  A    between atoms: _211  and  _214
REMARK   85  A    between atoms: _214  and  _215
REMARK   86  A    between atoms: _215  and  _216
REMARK   87  A    between atoms: _221  and  _223
REMARK   88  A    between atoms: _223  and  _224
REMARK   89  A    between atoms: _223  and  _226
REMARK   90  A    between atoms: _226  and  _227
REMARK   91  A    between atoms: _227  and  _228
REMARK   92  A    between atoms: _228  and  _229
REMARK   93  A    between atoms: _238  and  _240
REMARK   94  A    between atoms: _240  and  _241
REMARK   95  A    between atoms: _240  and  _243
REMARK   96  A    between atoms: _243  and  _244
REMARK   97  A    between atoms: _244  and  _245
REMARK   98  A    between atoms: _245  and  _246
REMARK   99  A    between atoms: _255  and  _257
REMARK  100  A    between atoms: _257  and  _258
REMARK  101  A    between atoms: _257  and  _260
REMARK  102  A    between atoms: _260  and  _261
REMARK                            x       y       z     vdW  Elec       q    Type
REMARK                         _______ _______ _______ _____ _____    ______ ____
ROOT
ATOM      1  CB  ASN A   1      15.918  10.407  17.712  0.00  0.00    +0.110 C 
ENDROOT
BRANCH   1   2
ATOM      2  CG  ASN A   1      17.057   9.433  17.570  0.00  0.00    +0.221 C 
ATOM      3  ND2 ASN A   1      18.272   9.940  17.704  0.00  0.00    -0.329 N 
ATOM      4 HD21 ASN A   1      18.394  10.957  17.887  0.00  0.00    +0.145 HD
ATOM      5 HD22 ASN A   1      19.105   9.322  17.627  0.00  0.00    +0.145 HD
ATOM      6  OD1 ASN A   1      16.858   8.242  17.354  0.00  0.00    -0.275 OA
ENDBRANCH   1   2
BRANCH   1   7
ATOM      7  CA  ASN A   1      14.694  10.023  16.882  0.00  0.00    +0.142 C 
BRANCH   7   8
ATOM      8  N   ASN A   1      14.941  10.240  15.467  0.00  0.00    -0.239 NA
ATOM      9  H   ASN A   1      15.303  11.165  15.158  0.00  0.00    +0.142 HD
ENDBRANCH   7   8
BRANCH   7  10
ATOM     10  C   ASN A   1      13.525  10.864  17.349  0.00  0.00    +0.225 C 
ATOM     11  O   ASN A   1      13.474  12.065  17.095  0.00  0.00    -0.287 OA
ENDBRANCH   7  10
ENDBRANCH   1   7
TORSDOF 4
REMARK  Name = ../refined-set-2016/3oyw/3oyw_pocket.pdb
REMARK  102 active torsions:
REMARK  status: ('A' for Active; 'I' for Inactive)
REMARK    1  A    between atoms: _1  and  _3
REMARK    2  A    between atoms: _3  and  _4
REMARK    3  A    between atoms: _3  and  _6
REMARK    4  A    between atoms: _6  and  _7
REMARK    5  A    between atoms: _9  and  _11
REMARK    6  A    between atoms: _11  and  _12
REMARK    7  A    between atoms: _11  and  _14
REMARK    8  A    between atoms: _14  and  _15
REMARK    9  A    between atoms: _21  and  _23
REMARK   10  A    between atoms: _23  and  _24
REMARK   11  A    between atoms: _23  and  _26
REMARK   12  A    between atoms: _29  and  _31
REMARK   13  A    between atoms: _31  and  _32
REMARK   14  A    between atoms: _31  and  _34
REMARK   15  A    between atoms: _34  and  _35
REMARK   16  A    between atoms: _40  and  _42
REMARK   17  A    between atoms: _42  and  _43
REMARK   18  A    between atoms: _42  and  _45
REMARK   19  A    between atoms: _45  and  _46
REMARK   20  A    between atoms: _51  and  _53
REMARK   21  A    between atoms: _53  and  _54
REMARK   22  A    between atoms: _53  and  _56
REMARK   23  A    between atoms: _56  and  _57
REMARK   24  A    between atoms: _63  and  _65
REMARK   25  A    between atoms: _65  and  _66
REMARK   26  A    between atoms: _65  and  _68
REMARK   27  A    between atoms: _68  and  _69
REMARK   28  A    between atoms: _74  and  _76
REMARK   29  A    between atoms: _76  and  _77
REMARK   30  A    between atoms: _76  and  _79
REMARK   31  A    between atoms: _79  and  _80
REMARK   32  A    between atoms: _80  and  _81
REMARK   33  A    between atoms: _81  and  _82
REMARK   34  A    between atoms: _91  and  _93
REMARK   35  A    between atoms: _93  and  _94
REMARK   36  A    between atoms: _97  and  _99
REMARK   37  A    between atoms: _99  and  _100
REMARK   38  A    between atoms: _99  and  _102
REMARK   39  A    between atoms: _102  and  _103
REMARK   40  A    between atoms: _108  and  _110
REMARK   41  A    between atoms: _110  and  _111
REMARK   42  A    between atoms: _113  and  _115
REMARK   43  A    between atoms: _115  and  _116
REMARK   44  A    between atoms: _115  and  _118
REMARK   45  A    between atoms: _118  and  _119
REMARK   46  A    between atoms: _122  and  _124
REMARK   47  A    between atoms: _124  and  _125
REMARK   48  A    between atoms: _124  and  _127
REMARK   49  A    between atoms: _130  and  _132
REMARK   50  A    between atoms: _132  and  _133
REMARK   51  A    between atoms: _132  and  _135
REMARK   52  A    between atoms: _137  and  _139
REMARK   53  A    between atoms: _139  and  _140
REMARK   54  A    between atoms: _139  and  _142
REMARK   55  A    between atoms: _142  and  _143
REMARK   56  A    between atoms: _148  and  _150
REMARK   57  A    between atoms: _150  and  _151
REMARK   58  A    between atoms: _150  and  _153
REMARK   59  A    between atoms: _153  and  _154
REMARK   60  A    between atoms: _156  and  _158
REMARK   61  A    between atoms: _158  and  _159
REMARK   62  A    between atoms: _158  and  _161
REMARK   63  A    between atoms: _161  and  _162
REMARK   64  A    between atoms: _162  and  _163
REMARK   65  A    between atoms: _163  and  _164
REMARK   66  A    between atoms: _164  and  _165
REMARK   67  A    between atoms: _169  and  _171
REMARK   68  A    between atoms: _171  and  _172
REMARK   69  A    between atoms: _171  and  _174
REMARK   70  A    between atoms: _174  and  _175
REMARK   71  A    between atoms: _185  and  _187
REMARK   72  A    between atoms: _187  and  _188
REMARK   73  A    between atoms: _190  and  _192
REMARK   74  A    between atoms: _192  and  _193
REMARK   75  A    between atoms: _192  and  _195
REMARK   76  A    between atoms: _195  and  _196
REMARK   77  A    between atoms: _199  and  _201
REMARK   78  A    between atoms: _201  and  _202
REMARK   79  A    between atoms: _201  and  _204
REMARK   80  A    between atoms: _204  and  _205
REMARK   81  A    between atoms: _205  and  _206
REMARK   82  A    between atoms: _209  and  _211
REMARK   83  A    between atoms: _211  and  _212
REMARK   84  A    between atoms: _211  and  _214
REMARK   85  A    between atoms: _214  and  _215
REMARK   86  A    between atoms: _215  and  _216
REMARK   87  A    between atoms: _221  and  _223
REMARK   88  A    between atoms: _223  and  _224
REMARK   89  A    between atoms: _223  and  _226
REMARK   90  A    between atoms: _226  and  _227
REMARK   91  A    between atoms: _227  and  _228
REMARK   92  A    between atoms: _228  and  _229
REMARK   93  A    between atoms: _238  and  _240
REMARK   94  A    between atoms: _240  and  _241
REMARK   95  A    between atoms: _240  and  _243
REMARK   96  A    between atoms: _243  and  _244
REMARK   97  A    between atoms: _244  and  _245
REMARK   98  A    between atoms: _245  and  _246
REMARK   99  A    between atoms: _255  and  _257
REMARK  100  A    between atoms: _257  and  _258
REMARK  101  A    between atoms: _257  and  _260
REMARK  102  A    between atoms: _260  and  _261
REMARK                            x       y       z     vdW  Elec       q    Type
REMARK                         _______ _______ _______ _____ _____    ______ ____
ROOT
ATOM      1  CA  PHE A   2      14.070   4.785  13.598  0.00  0.00    +0.153 C 
ENDROOT
BRANCH   1   4
ATOM      2  C   HIS A   1      14.562   4.674  16.006  0.00  0.00    +0.239 C 
ATOM      3  O   HIS A   1      14.551   3.440  16.028  0.00  0.00    -0.274 OA
ATOM      4  N   PHE A   2      14.378   5.384  14.895  0.00  0.00    -0.297 N 
ATOM      5  H   PHE A   2      14.458   6.419  14.953  0.00  0.00    +0.150 HD
BRANCH   2   6
ATOM      6  CA  HIS A   1      14.737   5.485  17.300  0.00  0.00    +0.151 C 
BRANCH   6   7
ATOM      7  N   HIS A   1      13.491   5.301  18.009  0.00  0.00    -0.238 NA
ATOM      8  H   HIS A   1      13.260   4.349  18.358  0.00  0.00    +0.142 HD
ENDBRANCH   6   7
BRANCH   6   9
ATOM      9  CB  HIS A   1      15.900   4.981  18.171  0.00  0.00    +0.074 C 
BRANCH   9  10
ATOM     10  CG  HIS A   1      17.194   4.818  17.436  0.00  0.00    +0.082 A 
ATOM     11  ND1 HIS A   1      18.072   5.862  17.231  0.00  0.00    -0.227 NA
ATOM     12  CE1 HIS A   1      19.120   5.424  16.555  0.00  0.00    +0.199 A 
ATOM     13  NE2 HIS A   1      18.956   4.135  16.317  0.00  0.00    -0.221 NA
ATOM     14  CD2 HIS A   1      17.763   3.727  16.866  0.00  0.00    +0.115 A 
ENDBRANCH   9  10
ENDBRANCH   6   9
ENDBRANCH   2   6
ENDBRANCH   1   4
BRANCH   1  15
ATOM     15  C   PHE A   2      15.325   4.869  12.765  0.00  0.00    +0.241 C 
ATOM     16  N   ASN A   3      15.899   3.708  12.461  0.00  0.00    -0.298 N 
ATOM     17  H   ASN A   3      15.392   2.818  12.640  0.00  0.00    +0.150 HD
ATOM     18  O   PHE A   2      15.770   5.966  12.401  0.00  0.00    -0.273 OA
BRANCH  16  19
ATOM     19  CA  ASN A   3      17.229   3.678  11.880  0.00  0.00    +0.146 C 
BRANCH  19  20
ATOM     20  C   ASN A   3      17.350   2.747  10.659  0.00  0.00    +0.227 C 
ATOM     21  O   ASN A   3      17.777   1.591  10.793  0.00  0.00    -0.286 OA
ENDBRANCH  19  20
BRANCH  19  22
ATOM     22  CB  ASN A   3      18.238   3.337  12.988  0.00  0.00    +0.112 C 
BRANCH  22  23
ATOM     23  CG  ASN A   3      19.666   3.240  12.496  0.00  0.00    +0.222 C 
ATOM     24  OD1 ASN A   3      20.433   2.416  12.996  0.00  0.00    -0.275 OA
ATOM     25  ND2 ASN A   3      20.041   4.086  11.535  0.00  0.00    -0.329 N 
ATOM     26 HD21 ASN A   3      21.017   4.067  11.177  0.00  0.00    +0.145 HD
ATOM     27 HD22 ASN A   3      19.357   4.765  11.143  0.00  0.00    +0.145 HD
ENDBRANCH  22  23
ENDBRANCH  19  22
ENDBRANCH  16  19
ENDBRANCH   1  15
BRANCH   1  28
ATOM     28  CB  PHE A   2      12.950   5.581  12.939  0.00  0.00    +0.055 C 
BRANCH  28  29
ATOM     29  CG  PHE A   2      12.564   5.109  11.561  0.00  0.00    -0.020 A 
ATOM     30  CD2 PHE A   2      11.781   3.967  11.390  0.00  0.00    -0.004 A 
ATOM     31  CE2 PHE A   2      11.376   3.554  10.126  0.00  0.00    -0.000 A 
ATOM     32  CZ  PHE A   2      11.749   4.293   9.001  0.00  0.00    -0.000 A 
ATOM     33  CE1 PHE A   2      12.515   5.446   9.153  0.00  0.00    -0.000 A 
ATOM     34  CD1 PHE A   2      12.915   5.852  10.435  0.00  0.00    -0.004 A 
ENDBRANCH  28  29
ENDBRANCH   1  28
TORSDOF 12
REMARK  Name = ../refined-set-2016/3oyw/3oyw_pocket.pdb
REMARK  102 active torsions:
REMARK  status: ('A' for Active; 'I' for Inactive)
REMARK    1  A    between atoms: _1  and  _3
REMARK    2  A    between atoms: _3  and  _4
REMARK    3  A    between atoms: _3  and  _6
REMARK    4  A    between atoms: _6  and  _7
REMARK    5  A    between atoms: _9  and  _11
REMARK    6  A    between atoms: _11  and  _12
REMARK    7  A    between atoms: _11  and  _14
REMARK    8  A    between atoms: _14  and  _15
REMARK    9  A    between atoms: _21  and  _23
REMARK   10  A    between atoms: _23  and  _24
REMARK   11  A    between atoms: _23  and  _26
REMARK   12  A    between atoms: _29  and  _31
REMARK   13  A    between atoms: _31  and  _32
REMARK   14  A    between atoms: _31  and  _34
REMARK   15  A    between atoms: _34  and  _35
REMARK   16  A    between atoms: _40  and  _42
REMARK   17  A    between atoms: _42  and  _43
REMARK   18  A    between atoms: _42  and  _45
REMARK   19  A    between atoms: _45  and  _46
REMARK   20  A    between atoms: _51  and  _53
REMARK   21  A    between atoms: _53  and  _54
REMARK   22  A    between atoms: _53  and  _56
REMARK   23  A    between atoms: _56  and  _57
REMARK   24  A    between atoms: _63  and  _65
REMARK   25  A    between atoms: _65  and  _66
REMARK   26  A    between atoms: _65  and  _68
REMARK   27  A    between atoms: _68  and  _69
REMARK   28  A    between atoms: _74  and  _76
REMARK   29  A    between atoms: _76  and  _77
REMARK   30  A    between atoms: _76  and  _79
REMARK   31  A    between atoms: _79  and  _80
REMARK   32  A    between atoms: _80  and  _81
REMARK   33  A    between atoms: _81  and  _82
REMARK   34  A    between atoms: _91  and  _93
REMARK   35  A    between atoms: _93  and  _94
REMARK   36  A    between atoms: _97  and  _99
REMARK   37  A    between atoms: _99  and  _100
REMARK   38  A    between atoms: _99  and  _102
REMARK   39  A    between atoms: _102  and  _103
REMARK   40  A    between atoms: _108  and  _110
REMARK   41  A    between atoms: _110  and  _111
REMARK   42  A    between atoms: _113  and  _115
REMARK   43  A    between atoms: _115  and  _116
REMARK   44  A    between atoms: _115  and  _118
REMARK   45  A    between atoms: _118  and  _119
REMARK   46  A    between atoms: _122  and  _124
REMARK   47  A    between atoms: _124  and  _125
REMARK   48  A    between atoms: _124  and  _127
REMARK   49  A    between atoms: _130  and  _132
REMARK   50  A    between atoms: _132  and  _133
REMARK   51  A    between atoms: _132  and  _135
REMARK   52  A    between atoms: _137  and  _139
REMARK   53  A    between atoms: _139  and  _140
REMARK   54  A    between atoms: _139  and  _142
REMARK   55  A    between atoms: _142  and  _143
REMARK   56  A    between atoms: _148  and  _150
REMARK   57  A    between atoms: _150  and  _151
REMARK   58  A    between atoms: _150  and  _153
REMARK   59  A    between atoms: _153  and  _154
REMARK   60  A    between atoms: _156  and  _158
REMARK   61  A    between atoms: _158  and  _159
REMARK   62  A    between atoms: _158  and  _161
REMARK   63  A    between atoms: _161  and  _162
REMARK   64  A    between atoms: _162  and  _163
REMARK   65  A    between atoms: _163  and  _164
REMARK   66  A    between atoms: _164  and  _165
REMARK   67  A    between atoms: _169  and  _171
REMARK   68  A    between atoms: _171  and  _172
REMARK   69  A    between atoms: _171  and  _174
REMARK   70  A    between atoms: _174  and  _175
REMARK   71  A    between atoms: _185  and  _187
REMARK   72  A    between atoms: _187  and  _188
REMARK   73  A    between atoms: _190  and  _192
REMARK   74  A    between atoms: _192  and  _193
REMARK   75  A    between atoms: _192  and  _195
REMARK   76  A    between atoms: _195  and  _196
REMARK   77  A    between atoms: _199  and  _201
REMARK   78  A    between atoms: _201  and  _202
REMARK   79  A    between atoms: _201  and  _204
REMARK   80  A    between atoms: _204  and  _205
REMARK   81  A    between atoms: _205  and  _206
REMARK   82  A    between atoms: _209  and  _211
REMARK   83  A    between atoms: _211  and  _212
REMARK   84  A    between atoms: _211  and  _214
REMARK   85  A    between atoms: _214  and  _215
REMARK   86  A    between atoms: _215  and  _216
REMARK   87  A    between atoms: _221  and  _223
REMARK   88  A    between atoms: _223  and  _224
REMARK   89  A    between atoms: _223  and  _226
REMARK   90  A    between atoms: _226  and  _227
REMARK   91  A    between atoms: _227  and  _228
REMARK   92  A    between atoms: _228  and  _229
REMARK   93  A    between atoms: _238  and  _240
REMARK   94  A    between atoms: _240  and  _241
REMARK   95  A    between atoms: _240  and  _243
REMARK   96  A    between atoms: _243  and  _244
REMARK   97  A    between atoms: _244  and  _245
REMARK   98  A    between atoms: _245  and  _246
REMARK   99  A    between atoms: _255  and  _257
REMARK  100  A    between atoms: _257  and  _258
REMARK  101  A    between atoms: _257  and  _260
REMARK  102  A    between atoms: _260  and  _261
REMARK                            x       y       z     vdW  Elec       q    Type
REMARK                         _______ _______ _______ _____ _____    ______ ____
ROOT
ATOM      1  NE  ARG A   1      21.470  -0.019  12.460  0.00  0.00    -0.265 N 
ATOM      2  CZ  ARG A   1      21.801  -0.666  13.577  0.00  0.00    +0.342 C 
ATOM      3  NH2 ARG A   1      21.627  -0.070  14.752  0.00  0.00    -0.292 N 
ATOM      4 HH21 ARG A   1      21.882  -0.566  15.630  0.00  0.00    +0.255 HD
ATOM      5 HH22 ARG A   1      21.236   0.893  14.794  0.00  0.00    +0.255 HD
ATOM      6  NH1 ARG A   1      22.307  -1.896  13.529  0.00  0.00    -0.292 N 
ATOM      7 HH11 ARG A   1      22.561  -2.389  14.409  0.00  0.00    +0.255 HD
ATOM      8 HH12 ARG A   1      22.449  -2.365  12.611  0.00  0.00    +0.255 HD
ATOM      9  HE  ARG A   1      21.088   0.943  12.558  0.00  0.00    +0.259 HD
ENDROOT
BRANCH   1  10
ATOM     10  CD  ARG A   1      21.602  -0.557  11.106  0.00  0.00    +0.174 C 
BRANCH  10  11
ATOM     11  CG  ARG A   1      21.208   0.471  10.059  0.00  0.00    +0.045 C 
BRANCH  11  12
ATOM     12  CB  ARG A   1      21.086  -0.155   8.682  0.00  0.00    +0.029 C 
BRANCH  12  13
ATOM     13  CA  ARG A   1      20.508   0.796   7.621  0.00  0.00    +0.133 C 
BRANCH  13  14
ATOM     14  N   ARG A   1      19.104   1.072   7.881  0.00  0.00    -0.239 NA
ATOM     15  H   ARG A   1      18.446   0.277   8.010  0.00  0.00    +0.142 HD
ENDBRANCH  13  14
BRANCH  13  16
ATOM     16  C   ARG A   1      20.697   0.222   6.223  0.00  0.00    +0.224 C 
ATOM     17  O   ARG A   1      20.309  -0.914   5.962  0.00  0.00    -0.287 OA
ENDBRANCH  13  16
ENDBRANCH  12  13
ENDBRANCH  11  12
ENDBRANCH  10  11
ENDBRANCH   1  10
TORSDOF 6
REMARK  Name = ../refined-set-2016/3oyw/3oyw_pocket.pdb
REMARK  102 active torsions:
REMARK  status: ('A' for Active; 'I' for Inactive)
REMARK    1  A    between atoms: _1  and  _3
REMARK    2  A    between atoms: _3  and  _4
REMARK    3  A    between atoms: _3  and  _6
REMARK    4  A    between atoms: _6  and  _7
REMARK    5  A    between atoms: _9  and  _11
REMARK    6  A    between atoms: _11  and  _12
REMARK    7  A    between atoms: _11  and  _14
REMARK    8  A    between atoms: _14  and  _15
REMARK    9  A    between atoms: _21  and  _23
REMARK   10  A    between atoms: _23  and  _24
REMARK   11  A    between atoms: _23  and  _26
REMARK   12  A    between atoms: _29  and  _31
REMARK   13  A    between atoms: _31  and  _32
REMARK   14  A    between atoms: _31  and  _34
REMARK   15  A    between atoms: _34  and  _35
REMARK   16  A    between atoms: _40  and  _42
REMARK   17  A    between atoms: _42  and  _43
REMARK   18  A    between atoms: _42  and  _45
REMARK   19  A    between atoms: _45  and  _46
REMARK   20  A    between atoms: _51  and  _53
REMARK   21  A    between atoms: _53  and  _54
REMARK   22  A    between atoms: _53  and  _56
REMARK   23  A    between atoms: _56  and  _57
REMARK   24  A    between atoms: _63  and  _65
REMARK   25  A    between atoms: _65  and  _66
REMARK   26  A    between atoms: _65  and  _68
REMARK   27  A    between atoms: _68  and  _69
REMARK   28  A    between atoms: _74  and  _76
REMARK   29  A    between atoms: _76  and  _77
REMARK   30  A    between atoms: _76  and  _79
REMARK   31  A    between atoms: _79  and  _80
REMARK   32  A    between atoms: _80  and  _81
REMARK   33  A    between atoms: _81  and  _82
REMARK   34  A    between atoms: _91  and  _93
REMARK   35  A    between atoms: _93  and  _94
REMARK   36  A    between atoms: _97  and  _99
REMARK   37  A    between atoms: _99  and  _100
REMARK   38  A    between atoms: _99  and  _102
REMARK   39  A    between atoms: _102  and  _103
REMARK   40  A    between atoms: _108  and  _110
REMARK   41  A    between atoms: _110  and  _111
REMARK   42  A    between atoms: _113  and  _115
REMARK   43  A    between atoms: _115  and  _116
REMARK   44  A    between atoms: _115  and  _118
REMARK   45  A    between atoms: _118  and  _119
REMARK   46  A    between atoms: _122  and  _124
REMARK   47  A    between atoms: _124  and  _125
REMARK   48  A    between atoms: _124  and  _127
REMARK   49  A    between atoms: _130  and  _132
REMARK   50  A    between atoms: _132  and  _133
REMARK   51  A    between atoms: _132  and  _135
REMARK   52  A    between atoms: _137  and  _139
REMARK   53  A    between atoms: _139  and  _140
REMARK   54  A    between atoms: _139  and  _142
REMARK   55  A    between atoms: _142  and  _143
REMARK   56  A    between atoms: _148  and  _150
REMARK   57  A    between atoms: _150  and  _151
REMARK   58  A    between atoms: _150  and  _153
REMARK   59  A    between atoms: _153  and  _154
REMARK   60  A    between atoms: _156  and  _158
REMARK   61  A    between atoms: _158  and  _159
REMARK   62  A    between atoms: _158  and  _161
REMARK   63  A    between atoms: _161  and  _162
REMARK   64  A    between atoms: _162  and  _163
REMARK   65  A    between atoms: _163  and  _164
REMARK   66  A    between atoms: _164  and  _165
REMARK   67  A    between atoms: _169  and  _171
REMARK   68  A    between atoms: _171  and  _172
REMARK   69  A    between atoms: _171  and  _174
REMARK   70  A    between atoms: _174  and  _175
REMARK   71  A    between atoms: _185  and  _187
REMARK   72  A    between atoms: _187  and  _188
REMARK   73  A    between atoms: _190  and  _192
REMARK   74  A    between atoms: _192  and  _193
REMARK   75  A    between atoms: _192  and  _195
REMARK   76  A    between atoms: _195  and  _196
REMARK   77  A    between atoms: _199  and  _201
REMARK   78  A    between atoms: _201  and  _202
REMARK   79  A    between atoms: _201  and  _204
REMARK   80  A    between atoms: _204  and  _205
REMARK   81  A    between atoms: _205  and  _206
REMARK   82  A    between atoms: _209  and  _211
REMARK   83  A    between atoms: _211  and  _212
REMARK   84  A    between atoms: _211  and  _214
REMARK   85  A    between atoms: _214  and  _215
REMARK   86  A    between atoms: _215  and  _216
REMARK   87  A    between atoms: _221  and  _223
REMARK   88  A    between atoms: _223  and  _224
REMARK   89  A    between atoms: _223  and  _226
REMARK   90  A    between atoms: _226  and  _227
REMARK   91  A    between atoms: _227  and  _228
REMARK   92  A    between atoms: _228  and  _229
REMARK   93  A    between atoms: _238  and  _240
REMARK   94  A    between atoms: _240  and  _241
REMARK   95  A    between atoms: _240  and  _243
REMARK   96  A    between atoms: _243  and  _244
REMARK   97  A    between atoms: _244  and  _245
REMARK   98  A    between atoms: _245  and  _246
REMARK   99  A    between atoms: _255  and  _257
REMARK  100  A    between atoms: _257  and  _258
REMARK  101  A    between atoms: _257  and  _260
REMARK  102  A    between atoms: _260  and  _261
REMARK                            x       y       z     vdW  Elec       q    Type
REMARK                         _______ _______ _______ _____ _____    ______ ____
ROOT
ATOM      1  C   HIS A   2      26.590  -3.729  11.402  0.00  0.00    +0.241 C 
ATOM      2  O   HIS A   2      25.995  -4.527  12.134  0.00  0.00    -0.273 OA
ATOM      3  N   GLY A   3      27.100  -4.077  10.221  0.00  0.00    -0.295 N 
ATOM      4  H   GLY A   3      27.613  -3.365   9.663  0.00  0.00    +0.150 HD
ENDROOT
BRANCH   1   5
ATOM      5  CA  HIS A   2      26.772  -2.265  11.828  0.00  0.00    +0.155 C 
BRANCH   5   7
ATOM      6  C   ALA A   1      25.755  -1.213   9.814  0.00  0.00    +0.238 C 
ATOM      7  N   HIS A   2      26.753  -1.309  10.703  0.00  0.00    -0.297 N 
ATOM      8  H   HIS A   2      27.566  -0.670  10.594  0.00  0.00    +0.150 HD
ATOM      9  O   ALA A   1      24.737  -1.924   9.831  0.00  0.00    -0.274 OA
BRANCH   6  10
ATOM     10  CA  ALA A   1      25.941  -0.156   8.726  0.00  0.00    +0.145 C 
ATOM     11  CB  ALA A   1      25.313   1.171   9.150  0.00  0.00    +0.028 C 
BRANCH  10  12
ATOM     12  N   ALA A   1      25.390  -0.614   7.447  0.00  0.00    -0.238 NA
ATOM     13  H   ALA A   1      24.715  -1.405   7.449  0.00  0.00    +0.142 HD
ENDBRANCH  10  12
ENDBRANCH   6  10
ENDBRANCH   5   7
BRANCH   5  14
ATOM     14  CB  HIS A   2      25.734  -1.884  12.896  0.00  0.00    +0.076 C 
BRANCH  14  15
ATOM     15  CG  HIS A   2      25.943  -0.526  13.493  0.00  0.00    +0.082 A 
ATOM     16  CD2 HIS A   2      26.723  -0.114  14.521  0.00  0.00    +0.115 A 
ATOM     17  NE2 HIS A   2      26.539   1.243  14.651  0.00  0.00    -0.221 NA
ATOM     18  CE1 HIS A   2      25.676   1.649  13.738  0.00  0.00    +0.199 A 
ATOM     19  ND1 HIS A   2      25.298   0.601  13.027  0.00  0.00    -0.227 NA
ENDBRANCH  14  15
ENDBRANCH   5  14
ENDBRANCH   1   5
BRANCH   3  20
ATOM     20  CA  GLY A   3      26.958  -5.432   9.688  0.00  0.00    +0.176 C 
BRANCH  20  21
ATOM     21  C   GLY A   3      25.714  -5.610   8.835  0.00  0.00    +0.243 C 
ATOM     22  N   ASP A   4      24.643  -4.899   9.200  0.00  0.00    -0.297 N 
ATOM     23  H   ASP A   4      24.738  -4.245  10.003  0.00  0.00    +0.150 HD
ATOM     24  O   GLY A   3      25.731  -6.361   7.859  0.00  0.00    -0.273 OA
BRANCH  22  25
ATOM     25  CA  ASP A   4      23.338  -4.989   8.530  0.00  0.00    +0.148 C 
BRANCH  25  26
ATOM     26  C   ASP A   4      23.303  -4.392   7.128  0.00  0.00    +0.227 C 
ATOM     27  O   ASP A   4      24.014  -3.425   6.824  0.00  0.00    -0.286 OA
ENDBRANCH  25  26
BRANCH  25  28
ATOM     28  CB  ASP A   4      22.265  -4.311   9.378  0.00  0.00    +0.142 C 
BRANCH  28  29
ATOM     29  CG  ASP A   4      22.215  -4.850  10.781  0.00  0.00    +0.367 C 
ATOM     30  OD2 ASP A   4      21.845  -4.088  11.702  0.00  0.00    -0.246 OA
ATOM     31  OD1 ASP A   4      22.539  -6.042  10.961  0.00  0.00    -0.246 OA
ENDBRANCH  28  29
ENDBRANCH  25  28
ENDBRANCH  22  25
ENDBRANCH  20  21
ENDBRANCH   3  20
TORSDOF 12
REMARK  Name = ../refined-set-2016/3oyw/3oyw_pocket.pdb
REMARK  102 active torsions:
REMARK  status: ('A' for Active; 'I' for Inactive)
REMARK    1  A    between atoms: _1  and  _3
REMARK    2  A    between atoms: _3  and  _4
REMARK    3  A    between atoms: _3  and  _6
REMARK    4  A    between atoms: _6  and  _7
REMARK    5  A    between atoms: _9  and  _11
REMARK    6  A    between atoms: _11  and  _12
REMARK    7  A    between atoms: _11  and  _14
REMARK    8  A    between atoms: _14  and  _15
REMARK    9  A    between atoms: _21  and  _23
REMARK   10  A    between atoms: _23  and  _24
REMARK   11  A    between atoms: _23  and  _26
REMARK   12  A    between atoms: _29  and  _31
REMARK   13  A    between atoms: _31  and  _32
REMARK   14  A    between atoms: _31  and  _34
REMARK   15  A    between atoms: _34  and  _35
REMARK   16  A    between atoms: _40  and  _42
REMARK   17  A    between atoms: _42  and  _43
REMARK   18  A    between atoms: _42  and  _45
REMARK   19  A    between atoms: _45  and  _46
REMARK   20  A    between atoms: _51  and  _53
REMARK   21  A    between atoms: _53  and  _54
REMARK   22  A    between atoms: _53  and  _56
REMARK   23  A    between atoms: _56  and  _57
REMARK   24  A    between atoms: _63  and  _65
REMARK   25  A    between atoms: _65  and  _66
REMARK   26  A    between atoms: _65  and  _68
REMARK   27  A    between atoms: _68  and  _69
REMARK   28  A    between atoms: _74  and  _76
REMARK   29  A    between atoms: _76  and  _77
REMARK   30  A    between atoms: _76  and  _79
REMARK   31  A    between atoms: _79  and  _80
REMARK   32  A    between atoms: _80  and  _81
REMARK   33  A    between atoms: _81  and  _82
REMARK   34  A    between atoms: _91  and  _93
REMARK   35  A    between atoms: _93  and  _94
REMARK   36  A    between atoms: _97  and  _99
REMARK   37  A    between atoms: _99  and  _100
REMARK   38  A    between atoms: _99  and  _102
REMARK   39  A    between atoms: _102  and  _103
REMARK   40  A    between atoms: _108  and  _110
REMARK   41  A    between atoms: _110  and  _111
REMARK   42  A    between atoms: _113  and  _115
REMARK   43  A    between atoms: _115  and  _116
REMARK   44  A    between atoms: _115  and  _118
REMARK   45  A    between atoms: _118  and  _119
REMARK   46  A    between atoms: _122  and  _124
REMARK   47  A    between atoms: _124  and  _125
REMARK   48  A    between atoms: _124  and  _127
REMARK   49  A    between atoms: _130  and  _132
REMARK   50  A    between atoms: _132  and  _133
REMARK   51  A    between atoms: _132  and  _135
REMARK   52  A    between atoms: _137  and  _139
REMARK   53  A    between atoms: _139  and  _140
REMARK   54  A    between atoms: _139  and  _142
REMARK   55  A    between atoms: _142  and  _143
REMARK   56  A    between atoms: _148  and  _150
REMARK   57  A    between atoms: _150  and  _151
REMARK   58  A    between atoms: _150  and  _153
REMARK   59  A    between atoms: _153  and  _154
REMARK   60  A    between atoms: _156  and  _158
REMARK   61  A    between atoms: _158  and  _159
REMARK   62  A    between atoms: _158  and  _161
REMARK   63  A    between atoms: _161  and  _162
REMARK   64  A    between atoms: _162  and  _163
REMARK   65  A    between atoms: _163  and  _164
REMARK   66  A    between atoms: _164  and  _165
REMARK   67  A    between atoms: _169  and  _171
REMARK   68  A    between atoms: _171  and  _172
REMARK   69  A    between atoms: _171  and  _174
REMARK   70  A    between atoms: _174  and  _175
REMARK   71  A    between atoms: _185  and  _187
REMARK   72  A    between atoms: _187  and  _188
REMARK   73  A    between atoms: _190  and  _192
REMARK   74  A    between atoms: _192  and  _193
REMARK   75  A    between atoms: _192  and  _195
REMARK   76  A    between atoms: _195  and  _196
REMARK   77  A    between atoms: _199  and  _201
REMARK   78  A    between atoms: _201  and  _202
REMARK   79  A    between atoms: _201  and  _204
REMARK   80  A    between atoms: _204  and  _205
REMARK   81  A    between atoms: _205  and  _206
REMARK   82  A    between atoms: _209  and  _211
REMARK   83  A    between atoms: _211  and  _212
REMARK   84  A    between atoms: _211  and  _214
REMARK   85  A    between atoms: _214  and  _215
REMARK   86  A    between atoms: _215  and  _216
REMARK   87  A    between atoms: _221  and  _223
REMARK   88  A    between atoms: _223  and  _224
REMARK   89  A    between atoms: _223  and  _226
REMARK   90  A    between atoms: _226  and  _227
REMARK   91  A    between atoms: _227  and  _228
REMARK   92  A    between atoms: _228  and  _229
REMARK   93  A    between atoms: _238  and  _240
REMARK   94  A    between atoms: _240  and  _241
REMARK   95  A    between atoms: _240  and  _243
REMARK   96  A    between atoms: _243  and  _244
REMARK   97  A    between atoms: _244  and  _245
REMARK   98  A    between atoms: _245  and  _246
REMARK   99  A    between atoms: _255  and  _257
REMARK  100  A    between atoms: _257  and  _258
REMARK  101  A    between atoms: _257  and  _260
REMARK  102  A    between atoms: _260  and  _261
REMARK                            x       y       z     vdW  Elec       q    Type
REMARK                         _______ _______ _______ _____ _____    ______ ____
ROOT
ATOM      1  CA  ASN A   3      14.521   0.829  19.349  0.00  0.00    +0.158 C 
ENDROOT
BRANCH   1   3
ATOM      2  C   CYS A   2      14.243  -0.040  17.102  0.00  0.00    +0.242 C 
ATOM      3  N   ASN A   3      14.307   1.000  17.921  0.00  0.00    -0.297 N 
ATOM      4  H   ASN A   3      14.202   1.959  17.534  0.00  0.00    +0.150 HD
ATOM      5  O   CYS A   2      14.406  -1.201  17.483  0.00  0.00    -0.273 OA
BRANCH   2   6
ATOM      6  CA  CYS A   2      13.932   0.280  15.647  0.00  0.00    +0.160 C 
BRANCH   6   8
ATOM      7  C   VAL A   1      15.577  -0.081  13.872  0.00  0.00    +0.238 C 
ATOM      8  N   CYS A   2      14.695  -0.571  14.742  0.00  0.00    -0.297 N 
ATOM      9  H   CYS A   2      14.545  -1.600  14.777  0.00  0.00    +0.150 HD
ATOM     10  O   VAL A   1      15.807   1.123  13.745  0.00  0.00    -0.274 OA
BRANCH   7  11
ATOM     11  CA  VAL A   1      16.286  -1.100  12.992  0.00  0.00    +0.145 C 
BRANCH  11  12
ATOM     12  CB  VAL A   1      17.796  -1.165  13.308  0.00  0.00    +0.025 C 
ATOM     13  CG2 VAL A   1      18.059  -1.124  14.821  0.00  0.00    +0.002 C 
ATOM     14  CG1 VAL A   1      18.409  -2.417  12.681  0.00  0.00    +0.002 C 
ENDBRANCH  11  12
BRANCH  11  15
ATOM     15  N   VAL A   1      16.059  -0.772  11.598  0.00  0.00    -0.238 NA
ATOM     16  H   VAL A   1      16.501   0.084  11.207  0.00  0.00    +0.142 HD
ENDBRANCH  11  15
ENDBRANCH   7  11
ENDBRANCH   6   8
BRANCH   6  17
ATOM     17  CB  CYS A   2      12.428   0.115  15.413  0.00  0.00    +0.098 C 
ATOM     18  SG  CYS A   2      11.757   0.857  13.908  0.00  0.00    -0.080 S 
ENDBRANCH   6  17
ENDBRANCH   2   6
ENDBRANCH   1   3
BRANCH   1  19
ATOM     19  C   ASN A   3      13.964   2.001  20.144  0.00  0.00    +0.241 C 
ATOM     20  N   SER A   4      14.076   1.902  21.461  0.00  0.00    -0.295 N 
ATOM     21  H   SER A   4      14.405   1.004  21.870  0.00  0.00    +0.150 HD
ATOM     22  O   ASN A   3      13.445   2.964  19.581  0.00  0.00    -0.273 OA
BRANCH  20  23
ATOM     23  CA  SER A   4      13.756   3.003  22.354  0.00  0.00    +0.178 C 
BRANCH  23  24
ATOM     24  C   SER A   4      14.941   3.239  23.278  0.00  0.00    +0.243 C 
ATOM     25  N   LYS A   5      14.874   4.340  24.009  0.00  0.00    -0.298 N 
ATOM     26  H   LYS A   5      14.042   4.954  23.896  0.00  0.00    +0.150 HD
ATOM     27  O   SER A   4      15.885   2.451  23.318  0.00  0.00    -0.273 OA
BRANCH  25  28
ATOM     28  CA  LYS A   5      15.892   4.738  24.956  0.00  0.00    +0.137 C 
BRANCH  28  29
ATOM     29  C   LYS A   5      15.149   5.318  26.156  0.00  0.00    +0.227 C 
ATOM     30  O   LYS A   5      14.302   6.202  26.012  0.00  0.00    -0.286 OA
ENDBRANCH  28  29
BRANCH  28  31
ATOM     31  CB  LYS A   5      16.814   5.781  24.325  0.00  0.00    +0.028 C 
BRANCH  31  32
ATOM     32  CG  LYS A   5      18.120   6.013  25.069  0.00  0.00    -0.000 C 
BRANCH  32  33
ATOM     33  CD  LYS A   5      18.967   7.026  24.333  0.00  0.00    -0.024 C 
BRANCH  33  34
ATOM     34  CE  LYS A   5      20.392   6.540  24.194  0.00  0.00    -0.086 C 
BRANCH  34  35
ATOM     35  NZ  LYS A   5      21.102   7.276  23.108  0.00  0.00    +0.380 N 
ATOM     36  HZ1 LYS A   5      21.115   8.292  23.330  0.00  0.00    -0.089 HD
ATOM     37  HZ2 LYS A   5      22.078   6.924  23.033  0.00  0.00    -0.089 HD
ATOM     38  HZ3 LYS A   5      20.607   7.123  22.206  0.00  0.00    -0.089 HD
ENDBRANCH  34  35
ENDBRANCH  33  34
ENDBRANCH  32  33
ENDBRANCH  31  32
ENDBRANCH  28  31
ENDBRANCH  25  28
ENDBRANCH  23  24
BRANCH  23  39
ATOM     39  CB  SER A   4      12.492   2.687  23.164  0.00  0.00    +0.166 C 
BRANCH  39  40
ATOM     40  OG  SER A   4      12.620   1.429  23.802  0.00  0.00    -0.380 OA
ATOM     41  H   SER A   4      11.798   1.238  24.320  0.00  0.00    +0.211 HD
ENDBRANCH  39  40
ENDBRANCH  23  39
ENDBRANCH  20  23
ENDBRANCH   1  19
BRANCH   1  42
ATOM     42  CB  ASN A   3      16.018   0.633  19.661  0.00  0.00    +0.114 C 
BRANCH  42  43
ATOM     43  CG  ASN A   3      16.248  -0.245  20.885  0.00  0.00    +0.222 C 
ATOM     44  OD1 ASN A   3      15.313  -0.547  21.628  0.00  0.00    -0.275 OA
ATOM     45  ND2 ASN A   3      17.491  -0.662  21.094  0.00  0.00    -0.329 N 
ATOM     46 HD21 ASN A   3      17.706  -1.268  21.911  0.00  0.00    +0.145 HD
ATOM     47 HD22 ASN A   3      18.250  -0.382  20.440  0.00  0.00    +0.145 HD
ENDBRANCH  42  43
ENDBRANCH   1  42
TORSDOF 21
REMARK  Name = ../refined-set-2016/3oyw/3oyw_pocket.pdb
REMARK  102 active torsions:
REMARK  status: ('A' for Active; 'I' for Inactive)
REMARK    1  A    between atoms: _1  and  _3
REMARK    2  A    between atoms: _3  and  _4
REMARK    3  A    between atoms: _3  and  _6
REMARK    4  A    between atoms: _6  and  _7
REMARK    5  A    between atoms: _9  and  _11
REMARK    6  A    between atoms: _11  and  _12
REMARK    7  A    between atoms: _11  and  _14
REMARK    8  A    between atoms: _14  and  _15
REMARK    9  A    between atoms: _21  and  _23
REMARK   10  A    between atoms: _23  and  _24
REMARK   11  A    between atoms: _23  and  _26
REMARK   12  A    between atoms: _29  and  _31
REMARK   13  A    between atoms: _31  and  _32
REMARK   14  A    between atoms: _31  and  _34
REMARK   15  A    between atoms: _34  and  _35
REMARK   16  A    between atoms: _40  and  _42
REMARK   17  A    between atoms: _42  and  _43
REMARK   18  A    between atoms: _42  and  _45
REMARK   19  A    between atoms: _45  and  _46
REMARK   20  A    between atoms: _51  and  _53
REMARK   21  A    between atoms: _53  and  _54
REMARK   22  A    between atoms: _53  and  _56
REMARK   23  A    between atoms: _56  and  _57
REMARK   24  A    between atoms: _63  and  _65
REMARK   25  A    between atoms: _65  and  _66
REMARK   26  A    between atoms: _65  and  _68
REMARK   27  A    between atoms: _68  and  _69
REMARK   28  A    between atoms: _74  and  _76
REMARK   29  A    between atoms: _76  and  _77
REMARK   30  A    between atoms: _76  and  _79
REMARK   31  A    between atoms: _79  and  _80
REMARK   32  A    between atoms: _80  and  _81
REMARK   33  A    between atoms: _81  and  _82
REMARK   34  A    between atoms: _91  and  _93
REMARK   35  A    between atoms: _93  and  _94
REMARK   36  A    between atoms: _97  and  _99
REMARK   37  A    between atoms: _99  and  _100
REMARK   38  A    between atoms: _99  and  _102
REMARK   39  A    between atoms: _102  and  _103
REMARK   40  A    between atoms: _108  and  _110
REMARK   41  A    between atoms: _110  and  _111
REMARK   42  A    between atoms: _113  and  _115
REMARK   43  A    between atoms: _115  and  _116
REMARK   44  A    between atoms: _115  and  _118
REMARK   45  A    between atoms: _118  and  _119
REMARK   46  A    between atoms: _122  and  _124
REMARK   47  A    between atoms: _124  and  _125
REMARK   48  A    between atoms: _124  and  _127
REMARK   49  A    between atoms: _130  and  _132
REMARK   50  A    between atoms: _132  and  _133
REMARK   51  A    between atoms: _132  and  _135
REMARK   52  A    between atoms: _137  and  _139
REMARK   53  A    between atoms: _139  and  _140
REMARK   54  A    between atoms: _139  and  _142
REMARK   55  A    between atoms: _142  and  _143
REMARK   56  A    between atoms: _148  and  _150
REMARK   57  A    between atoms: _150  and  _151
REMARK   58  A    between atoms: _150  and  _153
REMARK   59  A    between atoms: _153  and  _154
REMARK   60  A    between atoms: _156  and  _158
REMARK   61  A    between atoms: _158  and  _159
REMARK   62  A    between atoms: _158  and  _161
REMARK   63  A    between atoms: _161  and  _162
REMARK   64  A    between atoms: _162  and  _163
REMARK   65  A    between atoms: _163  and  _164
REMARK   66  A    between atoms: _164  and  _165
REMARK   67  A    between atoms: _169  and  _171
REMARK   68  A    between atoms: _171  and  _172
REMARK   69  A    between atoms: _171  and  _174
REMARK   70  A    between atoms: _174  and  _175
REMARK   71  A    between atoms: _185  and  _187
REMARK   72  A    between atoms: _187  and  _188
REMARK   73  A    between atoms: _190  and  _192
REMARK   74  A    between atoms: _192  and  _193
REMARK   75  A    between atoms: _192  and  _195
REMARK   76  A    between atoms: _195  and  _196
REMARK   77  A    between atoms: _199  and  _201
REMARK   78  A    between atoms: _201  and  _202
REMARK   79  A    between atoms: _201  and  _204
REMARK   80  A    between atoms: _204  and  _205
REMARK   81  A    between atoms: _205  and  _206
REMARK   82  A    between atoms: _209  and  _211
REMARK   83  A    between atoms: _211  and  _212
REMARK   84  A    between atoms: _211  and  _214
REMARK   85  A    between atoms: _214  and  _215
REMARK   86  A    between atoms: _215  and  _216
REMARK   87  A    between atoms: _221  and  _223
REMARK   88  A    between atoms: _223  and  _224
REMARK   89  A    between atoms: _223  and  _226
REMARK   90  A    between atoms: _226  and  _227
REMARK   91  A    between atoms: _227  and  _228
REMARK   92  A    between atoms: _228  and  _229
REMARK   93  A    between atoms: _238  and  _240
REMARK   94  A    between atoms: _240  and  _241
REMARK   95  A    between atoms: _240  and  _243
REMARK   96  A    between atoms: _243  and  _244
REMARK   97  A    between atoms: _244  and  _245
REMARK   98  A    between atoms: _245  and  _246
REMARK   99  A    between atoms: _255  and  _257
REMARK  100  A    between atoms: _257  and  _258
REMARK  101  A    between atoms: _257  and  _260
REMARK  102  A    between atoms: _260  and  _261
REMARK                            x       y       z     vdW  Elec       q    Type
REMARK                         _______ _______ _______ _____ _____    ______ ____
ROOT
ATOM      1  CA  GLU A   4      15.875  -3.883  19.449  0.00  0.00    +0.149 C 
ENDROOT
BRANCH   1   2
ATOM      2  C   GLU A   4      14.896  -4.707  18.605  0.00  0.00    +0.241 C 
ATOM      3  O   GLU A   4      14.724  -5.904  18.847  0.00  0.00    -0.273 OA
ATOM      4  N   GLN A   5      14.271  -4.058  17.622  0.00  0.00    -0.297 N 
ATOM      5  H   GLN A   5      14.415  -3.032  17.535  0.00  0.00    +0.150 HD
BRANCH   4   6
ATOM      6  CA  GLN A   5      13.387  -4.728  16.654  0.00  0.00    +0.149 C 
BRANCH   6   7
ATOM      7  C   GLN A   5      13.771  -4.418  15.215  0.00  0.00    +0.241 C 
ATOM      8  O   GLN A   5      14.101  -3.282  14.879  0.00  0.00    -0.273 OA
ATOM      9  N   ARG A   6      13.711  -5.436  14.368  0.00  0.00    -0.298 N 
ATOM     10  H   ARG A   6      13.478  -6.384  14.726  0.00  0.00    +0.150 HD
BRANCH   9  11
ATOM     11  CA  ARG A   6      13.965  -5.252  12.943  0.00  0.00    +0.137 C 
BRANCH  11  12
ATOM     12  C   ARG A   6      12.712  -5.461  12.104  0.00  0.00    +0.227 C 
ATOM     13  O   ARG A   6      11.933  -6.385  12.353  0.00  0.00    -0.286 OA
ENDBRANCH  11  12
BRANCH  11  14
ATOM     14  CB  ARG A   6      15.110  -6.142  12.470  0.00  0.00    +0.031 C 
BRANCH  14  15
ATOM     15  CG  ARG A   6      16.440  -5.602  12.901  0.00  0.00    +0.045 C 
BRANCH  15  16
ATOM     16  CD  ARG A   6      17.452  -6.691  13.181  0.00  0.00    +0.174 C 
BRANCH  16  17
ATOM     17  NE  ARG A   6      18.614  -6.100  13.837  0.00  0.00    -0.265 N 
ATOM     18  HE  ARG A   6      18.537  -5.878  14.850  0.00  0.00    +0.259 HD
ATOM     19  CZ  ARG A   6      19.765  -5.825  13.229  0.00  0.00    +0.342 C 
ATOM     20  NH2 ARG A   6      20.759  -5.268  13.911  0.00  0.00    -0.292 N 
ATOM     21 HH21 ARG A   6      20.638  -5.047  14.920  0.00  0.00    +0.255 HD
ATOM     22 HH22 ARG A   6      21.659  -5.053  13.436  0.00  0.00    +0.255 HD
ATOM     23  NH1 ARG A   6      19.927  -6.116  11.945  0.00  0.00    -0.292 N 
ATOM     24 HH11 ARG A   6      20.828  -5.900  11.472  0.00  0.00    +0.255 HD
ATOM     25 HH12 ARG A   6      19.153  -6.560  11.411  0.00  0.00    +0.255 HD
ENDBRANCH  16  17
ENDBRANCH  15  16
ENDBRANCH  14  15
ENDBRANCH  11  14
ENDBRANCH   9  11
ENDBRANCH   6   7
BRANCH   6  26
ATOM     26  CB  GLN A   5      11.930  -4.329  16.860  0.00  0.00    +0.039 C 
BRANCH  26  27
ATOM     27  CG  GLN A   5      11.255  -5.080  17.981  0.00  0.00    +0.087 C 
BRANCH  27  28
ATOM     28  CD  GLN A   5       9.815  -4.674  18.176  0.00  0.00    +0.219 C 
ATOM     29  OE1 GLN A   5       9.246  -4.905  19.240  0.00  0.00    -0.275 OA
ATOM     30  NE2 GLN A   5       9.212  -4.071  17.153  0.00  0.00    -0.329 N 
ATOM     31 HE21 GLN A   5       8.219  -3.775  17.236  0.00  0.00    +0.145 HD
ATOM     32 HE22 GLN A   5       9.735  -3.896  16.271  0.00  0.00    +0.145 HD
ENDBRANCH  27  28
ENDBRANCH  26  27
ENDBRANCH   6  26
ENDBRANCH   4   6
ENDBRANCH   1   2
BRANCH   1  35
ATOM     33  C   THR A   3      14.918  -3.863  21.708  0.00  0.00    +0.243 C 
ATOM     34  O   THR A   3      13.935  -3.193  21.383  0.00  0.00    -0.273 OA
ATOM     35  N   GLU A   4      15.849  -4.262  20.851  0.00  0.00    -0.297 N 
ATOM     36  H   GLU A   4      16.605  -4.883  21.204  0.00  0.00    +0.150 HD
BRANCH  33  37
ATOM     37  CA  THR A   3      15.135  -4.304  23.159  0.00  0.00    +0.176 C 
BRANCH  37  39
ATOM     38  C   GLY A   2      15.978  -2.196  24.103  0.00  0.00    +0.243 C 
ATOM     39  N   THR A   3      15.060  -3.157  24.065  0.00  0.00    -0.295 N 
ATOM     40  H   THR A   3      14.248  -3.090  24.711  0.00  0.00    +0.150 HD
ATOM     41  O   GLY A   2      17.054  -2.255  23.498  0.00  0.00    -0.273 OA
BRANCH  38  42
ATOM     42  CA  GLY A   2      15.631  -0.985  24.951  0.00  0.00    +0.176 C 
BRANCH  42  45
ATOM     43  C   TRP A   1      17.731   0.209  25.326  0.00  0.00    +0.239 C 
ATOM     44  O   TRP A   1      18.073  -0.567  26.216  0.00  0.00    -0.274 OA
ATOM     45  N   GLY A   2      16.563   0.117  24.694  0.00  0.00    -0.296 N 
ATOM     46  H   GLY A   2      16.305   0.847  23.999  0.00  0.00    +0.150 HD
BRANCH  43  47
ATOM     47  CA  TRP A   1      18.655   1.343  24.889  0.00  0.00    +0.149 C 
BRANCH  47  48
ATOM     48  N   TRP A   1      19.286   1.990  26.027  0.00  0.00    -0.238 NA
ATOM     49  H   TRP A   1      20.325   2.010  26.070  0.00  0.00    +0.142 HD
ENDBRANCH  47  48
BRANCH  47  50
ATOM     50  CB  TRP A   1      19.724   0.787  23.943  0.00  0.00    +0.054 C 
BRANCH  50  51
ATOM     51  CG  TRP A   1      20.441   1.839  23.136  0.00  0.00    -0.002 A 
ATOM     52  CD1 TRP A   1      21.781   2.101  23.142  0.00  0.00    +0.068 A 
ATOM     53  NE1 TRP A   1      22.067   3.123  22.273  0.00  0.00    -0.352 N 
ATOM     54  HE1 TRP A   1      23.014   3.514  22.093  0.00  0.00    +0.166 HD
ATOM     55  CE2 TRP A   1      20.908   3.548  21.679  0.00  0.00    +0.056 A 
ATOM     56  CZ2 TRP A   1      20.694   4.565  20.732  0.00  0.00    +0.017 A 
ATOM     57  CH2 TRP A   1      19.402   4.774  20.306  0.00  0.00    +0.001 A 
ATOM     58  CZ3 TRP A   1      18.332   4.001  20.804  0.00  0.00    +0.000 A 
ATOM     59  CE3 TRP A   1      18.546   2.994  21.747  0.00  0.00    +0.001 A 
ATOM     60  CD2 TRP A   1      19.856   2.760  22.198  0.00  0.00    +0.013 A 
ENDBRANCH  50  51
ENDBRANCH  47  50
ENDBRANCH  43  47
ENDBRANCH  42  45
ENDBRANCH  38  42
ENDBRANCH  37  39
BRANCH  37  61
ATOM     61  CB  THR A   3      14.080  -5.372  23.517  0.00  0.00    +0.137 C 
ATOM     62  CG2 THR A   3      14.336  -6.671  22.753  0.00  0.00    +0.034 C 
BRANCH  61  63
ATOM     63  OG1 THR A   3      14.132  -5.634  24.921  0.00  0.00    -0.382 OA
ATOM     64  HG1 THR A   3      13.456  -6.319  25.153  0.00  0.00    +0.210 HD
ENDBRANCH  61  63
ENDBRANCH  37  61
ENDBRANCH  33  37
ENDBRANCH   1  35
BRANCH   1  65
ATOM     65  CB  GLU A   4      17.280  -4.106  18.922  0.00  0.00    +0.041 C 
BRANCH  65  66
ATOM     66  CG  GLU A   4      17.718  -3.094  17.936  0.00  0.00    +0.116 C 
BRANCH  66  67
ATOM     67  CD  GLU A   4      19.032  -3.450  17.318  0.00  0.00    +0.365 C 
ATOM     68  OE2 GLU A   4      20.036  -2.831  17.702  0.00  0.00    -0.246 OA
ATOM     69  OE1 GLU A   4      19.061  -4.332  16.432  0.00  0.00    -0.246 OA
ENDBRANCH  66  67
ENDBRANCH  65  66
ENDBRANCH   1  65
TORSDOF 26
REMARK  Name = ../refined-set-2016/3oyw/3oyw_pocket.pdb
REMARK  102 active torsions:
REMARK  status: ('A' for Active; 'I' for Inactive)
REMARK    1  A    between atoms: _1  and  _3
REMARK    2  A    between atoms: _3  and  _4
REMARK    3  A    between atoms: _3  and  _6
REMARK    4  A    between atoms: _6  and  _7
REMARK    5  A    between atoms: _9  and  _11
REMARK    6  A    between atoms: _11  and  _12
REMARK    7  A    between atoms: _11  and  _14
REMARK    8  A    between atoms: _14  and  _15
REMARK    9  A    between atoms: _21  and  _23
REMARK   10  A    between atoms: _23  and  _24
REMARK   11  A    between atoms: _23  and  _26
REMARK   12  A    between atoms: _29  and  _31
REMARK   13  A    between atoms: _31  and  _32
REMARK   14  A    between atoms: _31  and  _34
REMARK   15  A    between atoms: _34  and  _35
REMARK   16  A    between atoms: _40  and  _42
REMARK   17  A    between atoms: _42  and  _43
REMARK   18  A    between atoms: _42  and  _45
REMARK   19  A    between atoms: _45  and  _46
REMARK   20  A    between atoms: _51  and  _53
REMARK   21  A    between atoms: _53  and  _54
REMARK   22  A    between atoms: _53  and  _56
REMARK   23  A    between atoms: _56  and  _57
REMARK   24  A    between atoms: _63  and  _65
REMARK   25  A    between atoms: _65  and  _66
REMARK   26  A    between atoms: _65  and  _68
REMARK   27  A    between atoms: _68  and  _69
REMARK   28  A    between atoms: _74  and  _76
REMARK   29  A    between atoms: _76  and  _77
REMARK   30  A    between atoms: _76  and  _79
REMARK   31  A    between atoms: _79  and  _80
REMARK   32  A    between atoms: _80  and  _81
REMARK   33  A    between atoms: _81  and  _82
REMARK   34  A    between atoms: _91  and  _93
REMARK   35  A    between atoms: _93  and  _94
REMARK   36  A    between atoms: _97  and  _99
REMARK   37  A    between atoms: _99  and  _100
REMARK   38  A    between atoms: _99  and  _102
REMARK   39  A    between atoms: _102  and  _103
REMARK   40  A    between atoms: _108  and  _110
REMARK   41  A    between atoms: _110  and  _111
REMARK   42  A    between atoms: _113  and  _115
REMARK   43  A    between atoms: _115  and  _116
REMARK   44  A    between atoms: _115  and  _118
REMARK   45  A    between atoms: _118  and  _119
REMARK   46  A    between atoms: _122  and  _124
REMARK   47  A    between atoms: _124  and  _125
REMARK   48  A    between atoms: _124  and  _127
REMARK   49  A    between atoms: _130  and  _132
REMARK   50  A    between atoms: _132  and  _133
REMARK   51  A    between atoms: _132  and  _135
REMARK   52  A    between atoms: _137  and  _139
REMARK   53  A    between atoms: _139  and  _140
REMARK   54  A    between atoms: _139  and  _142
REMARK   55  A    between atoms: _142  and  _143
REMARK   56  A    between atoms: _148  and  _150
REMARK   57  A    between atoms: _150  and  _151
REMARK   58  A    between atoms: _150  and  _153
REMARK   59  A    between atoms: _153  and  _154
REMARK   60  A    between atoms: _156  and  _158
REMARK   61  A    between atoms: _158  and  _159
REMARK   62  A    between atoms: _158  and  _161
REMARK   63  A    between atoms: _161  and  _162
REMARK   64  A    between atoms: _162  and  _163
REMARK   65  A    between atoms: _163  and  _164
REMARK   66  A    between atoms: _164  and  _165
REMARK   67  A    between atoms: _169  and  _171
REMARK   68  A    between atoms: _171  and  _172
REMARK   69  A    between atoms: _171  and  _174
REMARK   70  A    between atoms: _174  and  _175
REMARK   71  A    between atoms: _185  and  _187
REMARK   72  A    between atoms: _187  and  _188
REMARK   73  A    between atoms: _190  and  _192
REMARK   74  A    between atoms: _192  and  _193
REMARK   75  A    between atoms: _192  and  _195
REMARK   76  A    between atoms: _195  and  _196
REMARK   77  A    between atoms: _199  and  _201
REMARK   78  A    between atoms: _201  and  _202
REMARK   79  A    between atoms: _201  and  _204
REMARK   80  A    between atoms: _204  and  _205
REMARK   81  A    between atoms: _205  and  _206
REMARK   82  A    between atoms: _209  and  _211
REMARK   83  A    between atoms: _211  and  _212
REMARK   84  A    between atoms: _211  and  _214
REMARK   85  A    between atoms: _214  and  _215
REMARK   86  A    between atoms: _215  and  _216
REMARK   87  A    between atoms: _221  and  _223
REMARK   88  A    between atoms: _223  and  _224
REMARK   89  A    between atoms: _223  and  _226
REMARK   90  A    between atoms: _226  and  _227
REMARK   91  A    between atoms: _227  and  _228
REMARK   92  A    between atoms: _228  and  _229
REMARK   93  A    between atoms: _238  and  _240
REMARK   94  A    between atoms: _240  and  _241
REMARK   95  A    between atoms: _240  and  _243
REMARK   96  A    between atoms: _243  and  _244
REMARK   97  A    between atoms: _244  and  _245
REMARK   98  A    between atoms: _245  and  _246
REMARK   99  A    between atoms: _255  and  _257
REMARK  100  A    between atoms: _257  and  _258
REMARK  101  A    between atoms: _257  and  _260
REMARK  102  A    between atoms: _260  and  _261
REMARK                            x       y       z     vdW  Elec       q    Type
REMARK                         _______ _______ _______ _____ _____    ______ ____
ROOT
ATOM      1  NE  ARG A   1      10.221  -1.541  23.582  0.00  0.00    -0.265 N 
ATOM      2  HE  ARG A   1       9.392  -2.164  23.664  0.00  0.00    +0.259 HD
ATOM      3  CZ  ARG A   1      11.231  -1.954  22.827  0.00  0.00    +0.342 C 
ATOM      4  NH2 ARG A   1      12.314  -1.196  22.674  0.00  0.00    -0.292 N 
ATOM      5 HH21 ARG A   1      12.373  -0.272  23.148  0.00  0.00    +0.255 HD
ATOM      6 HH22 ARG A   1      13.101  -1.527  22.080  0.00  0.00    +0.255 HD
ATOM      7  NH1 ARG A   1      11.151  -3.129  22.218  0.00  0.00    -0.292 N 
ATOM      8 HH11 ARG A   1      10.302  -3.718  22.334  0.00  0.00    +0.255 HD
ATOM      9 HH12 ARG A   1      11.937  -3.461  21.624  0.00  0.00    +0.255 HD
ENDROOT
BRANCH   1  10
ATOM     10  CD  ARG A   1      10.191  -0.276  24.305  0.00  0.00    +0.174 C 
BRANCH  10  11
ATOM     11  CG  ARG A   1       8.815   0.016  24.884  0.00  0.00    +0.045 C 
BRANCH  11  12
ATOM     12  CB  ARG A   1       8.885   1.263  25.731  0.00  0.00    +0.029 C 
BRANCH  12  13
ATOM     13  CA  ARG A   1       7.548   1.975  25.957  0.00  0.00    +0.133 C 
BRANCH  13  14
ATOM     14  N   ARG A   1       7.057   2.563  24.701  0.00  0.00    -0.239 NA
ATOM     15  H   ARG A   1       7.748   2.938  24.020  0.00  0.00    +0.142 HD
ENDBRANCH  13  14
BRANCH  13  16
ATOM     16  C   ARG A   1       7.734   2.988  27.082  0.00  0.00    +0.224 C 
ATOM     17  O   ARG A   1       8.117   2.630  28.197  0.00  0.00    -0.287 OA
ENDBRANCH  13  16
ENDBRANCH  12  13
ENDBRANCH  11  12
ENDBRANCH  10  11
ENDBRANCH   1  10
TORSDOF 6
REMARK  Name = ../refined-set-2016/3oyw/3oyw_pocket.pdb
REMARK  102 active torsions:
REMARK  status: ('A' for Active; 'I' for Inactive)
REMARK    1  A    between atoms: _1  and  _3
REMARK    2  A    between atoms: _3  and  _4
REMARK    3  A    between atoms: _3  and  _6
REMARK    4  A    between atoms: _6  and  _7
REMARK    5  A    between atoms: _9  and  _11
REMARK    6  A    between atoms: _11  and  _12
REMARK    7  A    between atoms: _11  and  _14
REMARK    8  A    between atoms: _14  and  _15
REMARK    9  A    between atoms: _21  and  _23
REMARK   10  A    between atoms: _23  and  _24
REMARK   11  A    between atoms: _23  and  _26
REMARK   12  A    between atoms: _29  and  _31
REMARK   13  A    between atoms: _31  and  _32
REMARK   14  A    between atoms: _31  and  _34
REMARK   15  A    between atoms: _34  and  _35
REMARK   16  A    between atoms: _40  and  _42
REMARK   17  A    between atoms: _42  and  _43
REMARK   18  A    between atoms: _42  and  _45
REMARK   19  A    between atoms: _45  and  _46
REMARK   20  A    between atoms: _51  and  _53
REMARK   21  A    between atoms: _53  and  _54
REMARK   22  A    between atoms: _53  and  _56
REMARK   23  A    between atoms: _56  and  _57
REMARK   24  A    between atoms: _63  and  _65
REMARK   25  A    between atoms: _65  and  _66
REMARK   26  A    between atoms: _65  and  _68
REMARK   27  A    between atoms: _68  and  _69
REMARK   28  A    between atoms: _74  and  _76
REMARK   29  A    between atoms: _76  and  _77
REMARK   30  A    between atoms: _76  and  _79
REMARK   31  A    between atoms: _79  and  _80
REMARK   32  A    between atoms: _80  and  _81
REMARK   33  A    between atoms: _81  and  _82
REMARK   34  A    between atoms: _91  and  _93
REMARK   35  A    between atoms: _93  and  _94
REMARK   36  A    between atoms: _97  and  _99
REMARK   37  A    between atoms: _99  and  _100
REMARK   38  A    between atoms: _99  and  _102
REMARK   39  A    between atoms: _102  and  _103
REMARK   40  A    between atoms: _108  and  _110
REMARK   41  A    between atoms: _110  and  _111
REMARK   42  A    between atoms: _113  and  _115
REMARK   43  A    between atoms: _115  and  _116
REMARK   44  A    between atoms: _115  and  _118
REMARK   45  A    between atoms: _118  and  _119
REMARK   46  A    between atoms: _122  and  _124
REMARK   47  A    between atoms: _124  and  _125
REMARK   48  A    between atoms: _124  and  _127
REMARK   49  A    between atoms: _130  and  _132
REMARK   50  A    between atoms: _132  and  _133
REMARK   51  A    between atoms: _132  and  _135
REMARK   52  A    between atoms: _137  and  _139
REMARK   53  A    between atoms: _139  and  _140
REMARK   54  A    between atoms: _139  and  _142
REMARK   55  A    between atoms: _142  and  _143
REMARK   56  A    between atoms: _148  and  _150
REMARK   57  A    between atoms: _150  and  _151
REMARK   58  A    between atoms: _150  and  _153
REMARK   59  A    between atoms: _153  and  _154
REMARK   60  A    between atoms: _156  and  _158
REMARK   61  A    between atoms: _158  and  _159
REMARK   62  A    between atoms: _158  and  _161
REMARK   63  A    between atoms: _161  and  _162
REMARK   64  A    between atoms: _162  and  _163
REMARK   65  A    between atoms: _163  and  _164
REMARK   66  A    between atoms: _164  and  _165
REMARK   67  A    between atoms: _169  and  _171
REMARK   68  A    between atoms: _171  and  _172
REMARK   69  A    between atoms: _171  and  _174
REMARK   70  A    between atoms: _174  and  _175
REMARK   71  A    between atoms: _185  and  _187
REMARK   72  A    between atoms: _187  and  _188
REMARK   73  A    between atoms: _190  and  _192
REMARK   74  A    between atoms: _192  and  _193
REMARK   75  A    between atoms: _192  and  _195
REMARK   76  A    between atoms: _195  and  _196
REMARK   77  A    between atoms: _199  and  _201
REMARK   78  A    between atoms: _201  and  _202
REMARK   79  A    between atoms: _201  and  _204
REMARK   80  A    between atoms: _204  and  _205
REMARK   81  A    between atoms: _205  and  _206
REMARK   82  A    between atoms: _209  and  _211
REMARK   83  A    between atoms: _211  and  _212
REMARK   84  A    between atoms: _211  and  _214
REMARK   85  A    between atoms: _214  and  _215
REMARK   86  A    between atoms: _215  and  _216
REMARK   87  A    between atoms: _221  and  _223
REMARK   88  A    between atoms: _223  and  _224
REMARK   89  A    between atoms: _223  and  _226
REMARK   90  A    between atoms: _226  and  _227
REMARK   91  A    between atoms: _227  and  _228
REMARK   92  A    between atoms: _228  and  _229
REMARK   93  A    between atoms: _238  and  _240
REMARK   94  A    between atoms: _240  and  _241
REMARK   95  A    between atoms: _240  and  _243
REMARK   96  A    between atoms: _243  and  _244
REMARK   97  A    between atoms: _244  and  _245
REMARK   98  A    between atoms: _245  and  _246
REMARK   99  A    between atoms: _255  and  _257
REMARK  100  A    between atoms: _257  and  _258
REMARK  101  A    between atoms: _257  and  _260
REMARK  102  A    between atoms: _260  and  _261
REMARK                            x       y       z     vdW  Elec       q    Type
REMARK                         _______ _______ _______ _____ _____    ______ ____
ROOT
ATOM      1  CA  ASP A   1      20.954  12.304  11.688  0.00  0.00    +0.144 C 
ENDROOT
BRANCH   1   2
ATOM      2  N   ASP A   1      19.521  12.533  11.760  0.00  0.00    -0.239 NA
ATOM      3  H   ASP A   1      18.877  11.842  11.324  0.00  0.00    +0.142 HD
ENDBRANCH   1   2
BRANCH   1   4
ATOM      4  C   ASP A   1      21.309  11.299  10.589  0.00  0.00    +0.225 C 
ATOM      5  O   ASP A   1      20.476  10.485  10.176  0.00  0.00    -0.287 OA
ENDBRANCH   1   4
BRANCH   1   6
ATOM      6  CB  ASP A   1      21.462  11.820  13.048  0.00  0.00    +0.139 C 
BRANCH   6   7
ATOM      7  CG  ASP A   1      22.947  12.053  13.238  0.00  0.00    +0.367 C 
ATOM      8  OD2 ASP A   1      23.574  11.232  13.942  0.00  0.00    -0.246 OA
ATOM      9  OD1 ASP A   1      23.482  13.052  12.693  0.00  0.00    -0.246 OA
ENDBRANCH   6   7
ENDBRANCH   1   6
TORSDOF 4
REMARK  Name = ../refined-set-2016/3oyw/3oyw_pocket.pdb
REMARK  102 active torsions:
REMARK  status: ('A' for Active; 'I' for Inactive)
REMARK    1  A    between atoms: _1  and  _3
REMARK    2  A    between atoms: _3  and  _4
REMARK    3  A    between atoms: _3  and  _6
REMARK    4  A    between atoms: _6  and  _7
REMARK    5  A    between atoms: _9  and  _11
REMARK    6  A    between atoms: _11  and  _12
REMARK    7  A    between atoms: _11  and  _14
REMARK    8  A    between atoms: _14  and  _15
REMARK    9  A    between atoms: _21  and  _23
REMARK   10  A    between atoms: _23  and  _24
REMARK   11  A    between atoms: _23  and  _26
REMARK   12  A    between atoms: _29  and  _31
REMARK   13  A    between atoms: _31  and  _32
REMARK   14  A    between atoms: _31  and  _34
REMARK   15  A    between atoms: _34  and  _35
REMARK   16  A    between atoms: _40  and  _42
REMARK   17  A    between atoms: _42  and  _43
REMARK   18  A    between atoms: _42  and  _45
REMARK   19  A    between atoms: _45  and  _46
REMARK   20  A    between atoms: _51  and  _53
REMARK   21  A    between atoms: _53  and  _54
REMARK   22  A    between atoms: _53  and  _56
REMARK   23  A    between atoms: _56  and  _57
REMARK   24  A    between atoms: _63  and  _65
REMARK   25  A    between atoms: _65  and  _66
REMARK   26  A    between atoms: _65  and  _68
REMARK   27  A    between atoms: _68  and  _69
REMARK   28  A    between atoms: _74  and  _76
REMARK   29  A    between atoms: _76  and  _77
REMARK   30  A    between atoms: _76  and  _79
REMARK   31  A    between atoms: _79  and  _80
REMARK   32  A    between atoms: _80  and  _81
REMARK   33  A    between atoms: _81  and  _82
REMARK   34  A    between atoms: _91  and  _93
REMARK   35  A    between atoms: _93  and  _94
REMARK   36  A    between atoms: _97  and  _99
REMARK   37  A    between atoms: _99  and  _100
REMARK   38  A    between atoms: _99  and  _102
REMARK   39  A    between atoms: _102  and  _103
REMARK   40  A    between atoms: _108  and  _110
REMARK   41  A    between atoms: _110  and  _111
REMARK   42  A    between atoms: _113  and  _115
REMARK   43  A    between atoms: _115  and  _116
REMARK   44  A    between atoms: _115  and  _118
REMARK   45  A    between atoms: _118  and  _119
REMARK   46  A    between atoms: _122  and  _124
REMARK   47  A    between atoms: _124  and  _125
REMARK   48  A    between atoms: _124  and  _127
REMARK   49  A    between atoms: _130  and  _132
REMARK   50  A    between atoms: _132  and  _133
REMARK   51  A    between atoms: _132  and  _135
REMARK   52  A    between atoms: _137  and  _139
REMARK   53  A    between atoms: _139  and  _140
REMARK   54  A    between atoms: _139  and  _142
REMARK   55  A    between atoms: _142  and  _143
REMARK   56  A    between atoms: _148  and  _150
REMARK   57  A    between atoms: _150  and  _151
REMARK   58  A    between atoms: _150  and  _153
REMARK   59  A    between atoms: _153  and  _154
REMARK   60  A    between atoms: _156  and  _158
REMARK   61  A    between atoms: _158  and  _159
REMARK   62  A    between atoms: _158  and  _161
REMARK   63  A    between atoms: _161  and  _162
REMARK   64  A    between atoms: _162  and  _163
REMARK   65  A    between atoms: _163  and  _164
REMARK   66  A    between atoms: _164  and  _165
REMARK   67  A    between atoms: _169  and  _171
REMARK   68  A    between atoms: _171  and  _172
REMARK   69  A    between atoms: _171  and  _174
REMARK   70  A    between atoms: _174  and  _175
REMARK   71  A    between atoms: _185  and  _187
REMARK   72  A    between atoms: _187  and  _188
REMARK   73  A    between atoms: _190  and  _192
REMARK   74  A    between atoms: _192  and  _193
REMARK   75  A    between atoms: _192  and  _195
REMARK   76  A    between atoms: _195  and  _196
REMARK   77  A    between atoms: _199  and  _201
REMARK   78  A    between atoms: _201  and  _202
REMARK   79  A    between atoms: _201  and  _204
REMARK   80  A    between atoms: _204  and  _205
REMARK   81  A    between atoms: _205  and  _206
REMARK   82  A    between atoms: _209  and  _211
REMARK   83  A    between atoms: _211  and  _212
REMARK   84  A    between atoms: _211  and  _214
REMARK   85  A    between atoms: _214  and  _215
REMARK   86  A    between atoms: _215  and  _216
REMARK   87  A    between atoms: _221  and  _223
REMARK   88  A    between atoms: _223  and  _224
REMARK   89  A    between atoms: _223  and  _226
REMARK   90  A    between atoms: _226  and  _227
REMARK   91  A    between atoms: _227  and  _228
REMARK   92  A    between atoms: _228  and  _229
REMARK   93  A    between atoms: _238  and  _240
REMARK   94  A    between atoms: _240  and  _241
REMARK   95  A    between atoms: _240  and  _243
REMARK   96  A    between atoms: _243  and  _244
REMARK   97  A    between atoms: _244  and  _245
REMARK   98  A    between atoms: _245  and  _246
REMARK   99  A    between atoms: _255  and  _257
REMARK  100  A    between atoms: _257  and  _258
REMARK  101  A    between atoms: _257  and  _260
REMARK  102  A    between atoms: _260  and  _261
REMARK                            x       y       z     vdW  Elec       q    Type
REMARK                         _______ _______ _______ _____ _____    ______ ____
ROOT
ATOM      1  O   HOH     1      18.300  -5.454  21.701  0.00  0.00    +0.000 OA
ENDROOT
TORSDOF 0
REMARK  Name = ../refined-set-2016/3oyw/3oyw_pocket.pdb
REMARK  102 active torsions:
REMARK  status: ('A' for Active; 'I' for Inactive)
REMARK    1  A    between atoms: _1  and  _3
REMARK    2  A    between atoms: _3  and  _4
REMARK    3  A    between atoms: _3  and  _6
REMARK    4  A    between atoms: _6  and  _7
REMARK    5  A    between atoms: _9  and  _11
REMARK    6  A    between atoms: _11  and  _12
REMARK    7  A    between atoms: _11  and  _14
REMARK    8  A    between atoms: _14  and  _15
REMARK    9  A    between atoms: _21  and  _23
REMARK   10  A    between atoms: _23  and  _24
REMARK   11  A    between atoms: _23  and  _26
REMARK   12  A    between atoms: _29  and  _31
REMARK   13  A    between atoms: _31  and  _32
REMARK   14  A    between atoms: _31  and  _34
REMARK   15  A    between atoms: _34  and  _35
REMARK   16  A    between atoms: _40  and  _42
REMARK   17  A    between atoms: _42  and  _43
REMARK   18  A    between atoms: _42  and  _45
REMARK   19  A    between atoms: _45  and  _46
REMARK   20  A    between atoms: _51  and  _53
REMARK   21  A    between atoms: _53  and  _54
REMARK   22  A    between atoms: _53  and  _56
REMARK   23  A    between atoms: _56  and  _57
REMARK   24  A    between atoms: _63  and  _65
REMARK   25  A    between atoms: _65  and  _66
REMARK   26  A    between atoms: _65  and  _68
REMARK   27  A    between atoms: _68  and  _69
REMARK   28  A    between atoms: _74  and  _76
REMARK   29  A    between atoms: _76  and  _77
REMARK   30  A    between atoms: _76  and  _79
REMARK   31  A    between atoms: _79  and  _80
REMARK   32  A    between atoms: _80  and  _81
REMARK   33  A    between atoms: _81  and  _82
REMARK   34  A    between atoms: _91  and  _93
REMARK   35  A    between atoms: _93  and  _94
REMARK   36  A    between atoms: _97  and  _99
REMARK   37  A    between atoms: _99  and  _100
REMARK   38  A    between atoms: _99  and  _102
REMARK   39  A    between atoms: _102  and  _103
REMARK   40  A    between atoms: _108  and  _110
REMARK   41  A    between atoms: _110  and  _111
REMARK   42  A    between atoms: _113  and  _115
REMARK   43  A    between atoms: _115  and  _116
REMARK   44  A    between atoms: _115  and  _118
REMARK   45  A    between atoms: _118  and  _119
REMARK   46  A    between atoms: _122  and  _124
REMARK   47  A    between atoms: _124  and  _125
REMARK   48  A    between atoms: _124  and  _127
REMARK   49  A    between atoms: _130  and  _132
REMARK   50  A    between atoms: _132  and  _133
REMARK   51  A    between atoms: _132  and  _135
REMARK   52  A    between atoms: _137  and  _139
REMARK   53  A    between atoms: _139  and  _140
REMARK   54  A    between atoms: _139  and  _142
REMARK   55  A    between atoms: _142  and  _143
REMARK   56  A    between atoms: _148  and  _150
REMARK   57  A    between atoms: _150  and  _151
REMARK   58  A    between atoms: _150  and  _153
REMARK   59  A    between atoms: _153  and  _154
REMARK   60  A    between atoms: _156  and  _158
REMARK   61  A    between atoms: _158  and  _159
REMARK   62  A    between atoms: _158  and  _161
REMARK   63  A    between atoms: _161  and  _162
REMARK   64  A    between atoms: _162  and  _163
REMARK   65  A    between atoms: _163  and  _164
REMARK   66  A    between atoms: _164  and  _165
REMARK   67  A    between atoms: _169  and  _171
REMARK   68  A    between atoms: _171  and  _172
REMARK   69  A    between atoms: _171  and  _174
REMARK   70  A    between atoms: _174  and  _175
REMARK   71  A    between atoms: _185  and  _187
REMARK   72  A    between atoms: _187  and  _188
REMARK   73  A    between atoms: _190  and  _192
REMARK   74  A    between atoms: _192  and  _193
REMARK   75  A    between atoms: _192  and  _195
REMARK   76  A    between atoms: _195  and  _196
REMARK   77  A    between atoms: _199  and  _201
REMARK   78  A    between atoms: _201  and  _202
REMARK   79  A    between atoms: _201  and  _204
REMARK   80  A    between atoms: _204  and  _205
REMARK   81  A    between atoms: _205  and  _206
REMARK   82  A    between atoms: _209  and  _211
REMARK   83  A    between atoms: _211  and  _212
REMARK   84  A    between atoms: _211  and  _214
REMARK   85  A    between atoms: _214  and  _215
REMARK   86  A    between atoms: _215  and  _216
REMARK   87  A    between atoms: _221  and  _223
REMARK   88  A    between atoms: _223  and  _224
REMARK   89  A    between atoms: _223  and  _226
REMARK   90  A    between atoms: _226  and  _227
REMARK   91  A    between atoms: _227  and  _228
REMARK   92  A    between atoms: _228  and  _229
REMARK   93  A    between atoms: _238  and  _240
REMARK   94  A    between atoms: _240  and  _241
REMARK   95  A    between atoms: _240  and  _243
REMARK   96  A    between atoms: _243  and  _244
REMARK   97  A    between atoms: _244  and  _245
REMARK   98  A    between atoms: _245  and  _246
REMARK   99  A    between atoms: _255  and  _257
REMARK  100  A    between atoms: _257  and  _258
REMARK  101  A    between atoms: _257  and  _260
REMARK  102  A    between atoms: _260  and  _261
REMARK                            x       y       z     vdW  Elec       q    Type
REMARK                         _______ _______ _______ _____ _____    ______ ____
ROOT
ATOM      1  O   HOH     1      21.266  -1.712  21.038  0.00  0.00    +0.000 OA
ENDROOT
TORSDOF 0
REMARK  Name = ../refined-set-2016/3oyw/3oyw_pocket.pdb
REMARK  102 active torsions:
REMARK  status: ('A' for Active; 'I' for Inactive)
REMARK    1  A    between atoms: _1  and  _3
REMARK    2  A    between atoms: _3  and  _4
REMARK    3  A    between atoms: _3  and  _6
REMARK    4  A    between atoms: _6  and  _7
REMARK    5  A    between atoms: _9  and  _11
REMARK    6  A    between atoms: _11  and  _12
REMARK    7  A    between atoms: _11  and  _14
REMARK    8  A    between atoms: _14  and  _15
REMARK    9  A    between atoms: _21  and  _23
REMARK   10  A    between atoms: _23  and  _24
REMARK   11  A    between atoms: _23  and  _26
REMARK   12  A    between atoms: _29  and  _31
REMARK   13  A    between atoms: _31  and  _32
REMARK   14  A    between atoms: _31  and  _34
REMARK   15  A    between atoms: _34  and  _35
REMARK   16  A    between atoms: _40  and  _42
REMARK   17  A    between atoms: _42  and  _43
REMARK   18  A    between atoms: _42  and  _45
REMARK   19  A    between atoms: _45  and  _46
REMARK   20  A    between atoms: _51  and  _53
REMARK   21  A    between atoms: _53  and  _54
REMARK   22  A    between atoms: _53  and  _56
REMARK   23  A    between atoms: _56  and  _57
REMARK   24  A    between atoms: _63  and  _65
REMARK   25  A    between atoms: _65  and  _66
REMARK   26  A    between atoms: _65  and  _68
REMARK   27  A    between atoms: _68  and  _69
REMARK   28  A    between atoms: _74  and  _76
REMARK   29  A    between atoms: _76  and  _77
REMARK   30  A    between atoms: _76  and  _79
REMARK   31  A    between atoms: _79  and  _80
REMARK   32  A    between atoms: _80  and  _81
REMARK   33  A    between atoms: _81  and  _82
REMARK   34  A    between atoms: _91  and  _93
REMARK   35  A    between atoms: _93  and  _94
REMARK   36  A    between atoms: _97  and  _99
REMARK   37  A    between atoms: _99  and  _100
REMARK   38  A    between atoms: _99  and  _102
REMARK   39  A    between atoms: _102  and  _103
REMARK   40  A    between atoms: _108  and  _110
REMARK   41  A    between atoms: _110  and  _111
REMARK   42  A    between atoms: _113  and  _115
REMARK   43  A    between atoms: _115  and  _116
REMARK   44  A    between atoms: _115  and  _118
REMARK   45  A    between atoms: _118  and  _119
REMARK   46  A    between atoms: _122  and  _124
REMARK   47  A    between atoms: _124  and  _125
REMARK   48  A    between atoms: _124  and  _127
REMARK   49  A    between atoms: _130  and  _132
REMARK   50  A    between atoms: _132  and  _133
REMARK   51  A    between atoms: _132  and  _135
REMARK   52  A    between atoms: _137  and  _139
REMARK   53  A    between atoms: _139  and  _140
REMARK   54  A    between atoms: _139  and  _142
REMARK   55  A    between atoms: _142  and  _143
REMARK   56  A    between atoms: _148  and  _150
REMARK   57  A    between atoms: _150  and  _151
REMARK   58  A    between atoms: _150  and  _153
REMARK   59  A    between atoms: _153  and  _154
REMARK   60  A    between atoms: _156  and  _158
REMARK   61  A    between atoms: _158  and  _159
REMARK   62  A    between atoms: _158  and  _161
REMARK   63  A    between atoms: _161  and  _162
REMARK   64  A    between atoms: _162  and  _163
REMARK   65  A    between atoms: _163  and  _164
REMARK   66  A    between atoms: _164  and  _165
REMARK   67  A    between atoms: _169  and  _171
REMARK   68  A    between atoms: _171  and  _172
REMARK   69  A    between atoms: _171  and  _174
REMARK   70  A    between atoms: _174  and  _175
REMARK   71  A    between atoms: _185  and  _187
REMARK   72  A    between atoms: _187  and  _188
REMARK   73  A    between atoms: _190  and  _192
REMARK   74  A    between atoms: _192  and  _193
REMARK   75  A    between atoms: _192  and  _195
REMARK   76  A    between atoms: _195  and  _196
REMARK   77  A    between atoms: _199  and  _201
REMARK   78  A    between atoms: _201  and  _202
REMARK   79  A    between atoms: _201  and  _204
REMARK   80  A    between atoms: _204  and  _205
REMARK   81  A    between atoms: _205  and  _206
REMARK   82  A    between atoms: _209  and  _211
REMARK   83  A    between atoms: _211  and  _212
REMARK   84  A    between atoms: _211  and  _214
REMARK   85  A    between atoms: _214  and  _215
REMARK   86  A    between atoms: _215  and  _216
REMARK   87  A    between atoms: _221  and  _223
REMARK   88  A    between atoms: _223  and  _224
REMARK   89  A    between atoms: _223  and  _226
REMARK   90  A    between atoms: _226  and  _227
REMARK   91  A    between atoms: _227  and  _228
REMARK   92  A    between atoms: _228  and  _229
REMARK   93  A    between atoms: _238  and  _240
REMARK   94  A    between atoms: _240  and  _241
REMARK   95  A    between atoms: _240  and  _243
REMARK   96  A    between atoms: _243  and  _244
REMARK   97  A    between atoms: _244  and  _245
REMARK   98  A    between atoms: _245  and  _246
REMARK   99  A    between atoms: _255  and  _257
REMARK  100  A    between atoms: _257  and  _258
REMARK  101  A    between atoms: _257  and  _260
REMARK  102  A    between atoms: _260  and  _261
REMARK                            x       y       z     vdW  Elec       q    Type
REMARK                         _______ _______ _______ _____ _____    ______ ____
ROOT
ATOM      1  O   HOH     1      23.725   6.334  22.457  0.00  0.00    +0.000 OA
ENDROOT
TORSDOF 0
REMARK  Name = ../refined-set-2016/3oyw/3oyw_pocket.pdb
REMARK  102 active torsions:
REMARK  status: ('A' for Active; 'I' for Inactive)
REMARK    1  A    between atoms: _1  and  _3
REMARK    2  A    between atoms: _3  and  _4
REMARK    3  A    between atoms: _3  and  _6
REMARK    4  A    between atoms: _6  and  _7
REMARK    5  A    between atoms: _9  and  _11
REMARK    6  A    between atoms: _11  and  _12
REMARK    7  A    between atoms: _11  and  _14
REMARK    8  A    between atoms: _14  and  _15
REMARK    9  A    between atoms: _21  and  _23
REMARK   10  A    between atoms: _23  and  _24
REMARK   11  A    between atoms: _23  and  _26
REMARK   12  A    between atoms: _29  and  _31
REMARK   13  A    between atoms: _31  and  _32
REMARK   14  A    between atoms: _31  and  _34
REMARK   15  A    between atoms: _34  and  _35
REMARK   16  A    between atoms: _40  and  _42
REMARK   17  A    between atoms: _42  and  _43
REMARK   18  A    between atoms: _42  and  _45
REMARK   19  A    between atoms: _45  and  _46
REMARK   20  A    between atoms: _51  and  _53
REMARK   21  A    between atoms: _53  and  _54
REMARK   22  A    between atoms: _53  and  _56
REMARK   23  A    between atoms: _56  and  _57
REMARK   24  A    between atoms: _63  and  _65
REMARK   25  A    between atoms: _65  and  _66
REMARK   26  A    between atoms: _65  and  _68
REMARK   27  A    between atoms: _68  and  _69
REMARK   28  A    between atoms: _74  and  _76
REMARK   29  A    between atoms: _76  and  _77
REMARK   30  A    between atoms: _76  and  _79
REMARK   31  A    between atoms: _79  and  _80
REMARK   32  A    between atoms: _80  and  _81
REMARK   33  A    between atoms: _81  and  _82
REMARK   34  A    between atoms: _91  and  _93
REMARK   35  A    between atoms: _93  and  _94
REMARK   36  A    between atoms: _97  and  _99
REMARK   37  A    between atoms: _99  and  _100
REMARK   38  A    between atoms: _99  and  _102
REMARK   39  A    between atoms: _102  and  _103
REMARK   40  A    between atoms: _108  and  _110
REMARK   41  A    between atoms: _110  and  _111
REMARK   42  A    between atoms: _113  and  _115
REMARK   43  A    between atoms: _115  and  _116
REMARK   44  A    between atoms: _115  and  _118
REMARK   45  A    between atoms: _118  and  _119
REMARK   46  A    between atoms: _122  and  _124
REMARK   47  A    between atoms: _124  and  _125
REMARK   48  A    between atoms: _124  and  _127
REMARK   49  A    between atoms: _130  and  _132
REMARK   50  A    between atoms: _132  and  _133
REMARK   51  A    between atoms: _132  and  _135
REMARK   52  A    between atoms: _137  and  _139
REMARK   53  A    between atoms: _139  and  _140
REMARK   54  A    between atoms: _139  and  _142
REMARK   55  A    between atoms: _142  and  _143
REMARK   56  A    between atoms: _148  and  _150
REMARK   57  A    between atoms: _150  and  _151
REMARK   58  A    between atoms: _150  and  _153
REMARK   59  A    between atoms: _153  and  _154
REMARK   60  A    between atoms: _156  and  _158
REMARK   61  A    between atoms: _158  and  _159
REMARK   62  A    between atoms: _158  and  _161
REMARK   63  A    between atoms: _161  and  _162
REMARK   64  A    between atoms: _162  and  _163
REMARK   65  A    between atoms: _163  and  _164
REMARK   66  A    between atoms: _164  and  _165
REMARK   67  A    between atoms: _169  and  _171
REMARK   68  A    between atoms: _171  and  _172
REMARK   69  A    between atoms: _171  and  _174
REMARK   70  A    between atoms: _174  and  _175
REMARK   71  A    between atoms: _185  and  _187
REMARK   72  A    between atoms: _187  and  _188
REMARK   73  A    between atoms: _190  and  _192
REMARK   74  A    between atoms: _192  and  _193
REMARK   75  A    between atoms: _192  and  _195
REMARK   76  A    between atoms: _195  and  _196
REMARK   77  A    between atoms: _199  and  _201
REMARK   78  A    between atoms: _201  and  _202
REMARK   79  A    between atoms: _201  and  _204
REMARK   80  A    between atoms: _204  and  _205
REMARK   81  A    between atoms: _205  and  _206
REMARK   82  A    between atoms: _209  and  _211
REMARK   83  A    between atoms: _211  and  _212
REMARK   84  A    between atoms: _211  and  _214
REMARK   85  A    between atoms: _214  and  _215
REMARK   86  A    between atoms: _215  and  _216
REMARK   87  A    between atoms: _221  and  _223
REMARK   88  A    between atoms: _223  and  _224
REMARK   89  A    between atoms: _223  and  _226
REMARK   90  A    between atoms: _226  and  _227
REMARK   91  A    between atoms: _227  and  _228
REMARK   92  A    between atoms: _228  and  _229
REMARK   93  A    between atoms: _238  and  _240
REMARK   94  A    between atoms: _240  and  _241
REMARK   95  A    between atoms: _240  and  _243
REMARK   96  A    between atoms: _243  and  _244
REMARK   97  A    between atoms: _244  and  _245
REMARK   98  A    between atoms: _245  and  _246
REMARK   99  A    between atoms: _255  and  _257
REMARK  100  A    between atoms: _257  and  _258
REMARK  101  A    between atoms: _257  and  _260
REMARK  102  A    between atoms: _260  and  _261
REMARK                            x       y       z     vdW  Elec       q    Type
REMARK                         _______ _______ _______ _____ _____    ______ ____
ROOT
ATOM      1  O   HOH     1      27.042  -3.576  15.557  0.00  0.00    +0.000 OA
ENDROOT
TORSDOF 0
REMARK  Name = ../refined-set-2016/3oyw/3oyw_pocket.pdb
REMARK  102 active torsions:
REMARK  status: ('A' for Active; 'I' for Inactive)
REMARK    1  A    between atoms: _1  and  _3
REMARK    2  A    between atoms: _3  and  _4
REMARK    3  A    between atoms: _3  and  _6
REMARK    4  A    between atoms: _6  and  _7
REMARK    5  A    between atoms: _9  and  _11
REMARK    6  A    between atoms: _11  and  _12
REMARK    7  A    between atoms: _11  and  _14
REMARK    8  A    between atoms: _14  and  _15
REMARK    9  A    between atoms: _21  and  _23
REMARK   10  A    between atoms: _23  and  _24
REMARK   11  A    between atoms: _23  and  _26
REMARK   12  A    between atoms: _29  and  _31
REMARK   13  A    between atoms: _31  and  _32
REMARK   14  A    between atoms: _31  and  _34
REMARK   15  A    between atoms: _34  and  _35
REMARK   16  A    between atoms: _40  and  _42
REMARK   17  A    between atoms: _42  and  _43
REMARK   18  A    between atoms: _42  and  _45
REMARK   19  A    between atoms: _45  and  _46
REMARK   20  A    between atoms: _51  and  _53
REMARK   21  A    between atoms: _53  and  _54
REMARK   22  A    between atoms: _53  and  _56
REMARK   23  A    between atoms: _56  and  _57
REMARK   24  A    between atoms: _63  and  _65
REMARK   25  A    between atoms: _65  and  _66
REMARK   26  A    between atoms: _65  and  _68
REMARK   27  A    between atoms: _68  and  _69
REMARK   28  A    between atoms: _74  and  _76
REMARK   29  A    between atoms: _76  and  _77
REMARK   30  A    between atoms: _76  and  _79
REMARK   31  A    between atoms: _79  and  _80
REMARK   32  A    between atoms: _80  and  _81
REMARK   33  A    between atoms: _81  and  _82
REMARK   34  A    between atoms: _91  and  _93
REMARK   35  A    between atoms: _93  and  _94
REMARK   36  A    between atoms: _97  and  _99
REMARK   37  A    between atoms: _99  and  _100
REMARK   38  A    between atoms: _99  and  _102
REMARK   39  A    between atoms: _102  and  _103
REMARK   40  A    between atoms: _108  and  _110
REMARK   41  A    between atoms: _110  and  _111
REMARK   42  A    between atoms: _113  and  _115
REMARK   43  A    between atoms: _115  and  _116
REMARK   44  A    between atoms: _115  and  _118
REMARK   45  A    between atoms: _118  and  _119
REMARK   46  A    between atoms: _122  and  _124
REMARK   47  A    between atoms: _124  and  _125
REMARK   48  A    between atoms: _124  and  _127
REMARK   49  A    between atoms: _130  and  _132
REMARK   50  A    between atoms: _132  and  _133
REMARK   51  A    between atoms: _132  and  _135
REMARK   52  A    between atoms: _137  and  _139
REMARK   53  A    between atoms: _139  and  _140
REMARK   54  A    between atoms: _139  and  _142
REMARK   55  A    between atoms: _142  and  _143
REMARK   56  A    between atoms: _148  and  _150
REMARK   57  A    between atoms: _150  and  _151
REMARK   58  A    between atoms: _150  and  _153
REMARK   59  A    between atoms: _153  and  _154
REMARK   60  A    between atoms: _156  and  _158
REMARK   61  A    between atoms: _158  and  _159
REMARK   62  A    between atoms: _158  and  _161
REMARK   63  A    between atoms: _161  and  _162
REMARK   64  A    between atoms: _162  and  _163
REMARK   65  A    between atoms: _163  and  _164
REMARK   66  A    between atoms: _164  and  _165
REMARK   67  A    between atoms: _169  and  _171
REMARK   68  A    between atoms: _171  and  _172
REMARK   69  A    between atoms: _171  and  _174
REMARK   70  A    between atoms: _174  and  _175
REMARK   71  A    between atoms: _185  and  _187
REMARK   72  A    between atoms: _187  and  _188
REMARK   73  A    between atoms: _190  and  _192
REMARK   74  A    between atoms: _192  and  _193
REMARK   75  A    between atoms: _192  and  _195
REMARK   76  A    between atoms: _195  and  _196
REMARK   77  A    between atoms: _199  and  _201
REMARK   78  A    between atoms: _201  and  _202
REMARK   79  A    between atoms: _201  and  _204
REMARK   80  A    between atoms: _204  and  _205
REMARK   81  A    between atoms: _205  and  _206
REMARK   82  A    between atoms: _209  and  _211
REMARK   83  A    between atoms: _211  and  _212
REMARK   84  A    between atoms: _211  and  _214
REMARK   85  A    between atoms: _214  and  _215
REMARK   86  A    between atoms: _215  and  _216
REMARK   87  A    between atoms: _221  and  _223
REMARK   88  A    between atoms: _223  and  _224
REMARK   89  A    between atoms: _223  and  _226
REMARK   90  A    between atoms: _226  and  _227
REMARK   91  A    between atoms: _227  and  _228
REMARK   92  A    between atoms: _228  and  _229
REMARK   93  A    between atoms: _238  and  _240
REMARK   94  A    between atoms: _240  and  _241
REMARK   95  A    between atoms: _240  and  _243
REMARK   96  A    between atoms: _243  and  _244
REMARK   97  A    between atoms: _244  and  _245
REMARK   98  A    between atoms: _245  and  _246
REMARK   99  A    between atoms: _255  and  _257
REMARK  100  A    between atoms: _257  and  _258
REMARK  101  A    between atoms: _257  and  _260
REMARK  102  A    between atoms: _260  and  _261
REMARK                            x       y       z     vdW  Elec       q    Type
REMARK                         _______ _______ _______ _____ _____    ______ ____
ROOT
ATOM      1  O   HOH     1      22.918   4.327  14.053  0.00  0.00    +0.000 OA
ENDROOT
TORSDOF 0
