REMARK  Name = ../refined-set-2016/4cp5/4cp5_pocket.pdb
REMARK  137 active torsions:
REMARK  status: ('A' for Active; 'I' for Inactive)
REMARK    1  A    between atoms: _1  and  _3
REMARK    2  A    between atoms: _3  and  _4
REMARK    3  A    between atoms: _7  and  _9
REMARK    4  A    between atoms: _9  and  _10
REMARK    5  A    between atoms: _9  and  _12
REMARK    6  A    between atoms: _12  and  _13
REMARK    7  A    between atoms: _13  and  _14
REMARK    8  A    between atoms: _14  and  _15
REMARK    9  A    between atoms: _15  and  _16
REMARK   10  A    between atoms: _20  and  _22
REMARK   11  A    between atoms: _22  and  _23
REMARK   12  A    between atoms: _22  and  _25
REMARK   13  A    between atoms: _25  and  _26
REMARK   14  A    between atoms: _31  and  _33
REMARK   15  A    between atoms: _33  and  _34
REMARK   16  A    between atoms: _33  and  _36
REMARK   17  A    between atoms: _36  and  _37
REMARK   18  A    between atoms: _42  and  _43
REMARK   19  A    between atoms: _45  and  _47
REMARK   20  A    between atoms: _47  and  _48
REMARK   21  A    between atoms: _47  and  _50
REMARK   22  A    between atoms: _51  and  _52
REMARK   23  A    between atoms: _55  and  _57
REMARK   24  A    between atoms: _57  and  _58
REMARK   25  A    between atoms: _57  and  _60
REMARK   26  A    between atoms: _60  and  _61
REMARK   27  A    between atoms: _66  and  _68
REMARK   28  A    between atoms: _68  and  _69
REMARK   29  A    between atoms: _68  and  _71
REMARK   30  A    between atoms: _71  and  _72
REMARK   31  A    between atoms: _72  and  _73
REMARK   32  A    between atoms: _73  and  _74
REMARK   33  A    between atoms: _84  and  _85
REMARK   34  A    between atoms: _90  and  _92
REMARK   35  A    between atoms: _92  and  _93
REMARK   36  A    between atoms: _92  and  _95
REMARK   37  A    between atoms: _95  and  _96
REMARK   38  A    between atoms: _102  and  _104
REMARK   39  A    between atoms: _104  and  _105
REMARK   40  A    between atoms: _104  and  _107
REMARK   41  A    between atoms: _107  and  _108
REMARK   42  A    between atoms: _114  and  _116
REMARK   43  A    between atoms: _116  and  _117
REMARK   44  A    between atoms: _119  and  _121
REMARK   45  A    between atoms: _121  and  _122
REMARK   46  A    between atoms: _121  and  _124
REMARK   47  A    between atoms: _124  and  _125
REMARK   48  A    between atoms: _128  and  _130
REMARK   49  A    between atoms: _130  and  _131
REMARK   50  A    between atoms: _130  and  _133
REMARK   51  A    between atoms: _133  and  _134
REMARK   52  A    between atoms: _137  and  _139
REMARK   53  A    between atoms: _139  and  _140
REMARK   54  A    between atoms: _139  and  _142
REMARK   55  A    between atoms: _142  and  _143
REMARK   56  A    between atoms: _143  and  _144
REMARK   57  A    between atoms: _144  and  _145
REMARK   58  A    between atoms: _154  and  _156
REMARK   59  A    between atoms: _156  and  _157
REMARK   60  A    between atoms: _156  and  _159
REMARK   61  A    between atoms: _159  and  _160
REMARK   62  A    between atoms: _163  and  _165
REMARK   63  A    between atoms: _165  and  _166
REMARK   64  A    between atoms: _168  and  _170
REMARK   65  A    between atoms: _170  and  _171
REMARK   66  A    between atoms: _170  and  _173
REMARK   67  A    between atoms: _176  and  _178
REMARK   68  A    between atoms: _178  and  _179
REMARK   69  A    between atoms: _178  and  _181
REMARK   70  A    between atoms: _181  and  _182
REMARK   71  A    between atoms: _185  and  _187
REMARK   72  A    between atoms: _187  and  _188
REMARK   73  A    between atoms: _187  and  _190
REMARK   74  A    between atoms: _190  and  _191
REMARK   75  A    between atoms: _196  and  _198
REMARK   76  A    between atoms: _198  and  _199
REMARK   77  A    between atoms: _198  and  _201
REMARK   78  A    between atoms: _201  and  _202
REMARK   79  A    between atoms: _202  and  _203
REMARK   80  A    between atoms: _203  and  _204
REMARK   81  A    between atoms: _213  and  _215
REMARK   82  A    between atoms: _215  and  _216
REMARK   83  A    between atoms: _215  and  _218
REMARK   84  A    between atoms: _218  and  _219
REMARK   85  A    between atoms: _222  and  _224
REMARK   86  A    between atoms: _224  and  _225
REMARK   87  A    between atoms: _224  and  _227
REMARK   88  A    between atoms: _230  and  _232
REMARK   89  A    between atoms: _232  and  _233
REMARK   90  A    between atoms: _235  and  _237
REMARK   91  A    between atoms: _237  and  _238
REMARK   92  A    between atoms: _237  and  _240
REMARK   93  A    between atoms: _240  and  _241
REMARK   94  A    between atoms: _241  and  _242
REMARK   95  A    between atoms: _242  and  _243
REMARK   96  A    between atoms: _252  and  _254
REMARK   97  A    between atoms: _254  and  _255
REMARK   98  A    between atoms: _254  and  _257
REMARK   99  A    between atoms: _257  and  _258
REMARK  100  A    between atoms: _263  and  _265
REMARK  101  A    between atoms: _265  and  _266
REMARK  102  A    between atoms: _265  and  _268
REMARK  103  A    between atoms: _268  and  _269
REMARK  104  A    between atoms: _272  and  _274
REMARK  105  A    between atoms: _274  and  _275
REMARK  106  A    between atoms: _274  and  _277
REMARK  107  A    between atoms: _277  and  _278
REMARK  108  A    between atoms: _281  and  _283
REMARK  109  A    between atoms: _283  and  _284
REMARK  110  A    between atoms: _286  and  _288
REMARK  111  A    between atoms: _288  and  _289
REMARK  112  A    between atoms: _291  and  _293
REMARK  113  A    between atoms: _293  and  _294
REMARK  114  A    between atoms: _293  and  _296
REMARK  115  A    between atoms: _296  and  _297
REMARK  116  A    between atoms: _299  and  _301
REMARK  117  A    between atoms: _301  and  _302
REMARK  118  A    between atoms: _301  and  _304
REMARK  119  A    between atoms: _304  and  _305
REMARK  120  A    between atoms: _308  and  _310
REMARK  121  A    between atoms: _310  and  _311
REMARK  122  A    between atoms: _310  and  _313
REMARK  123  A    between atoms: _313  and  _314
REMARK  124  A    between atoms: _316  and  _318
REMARK  125  A    between atoms: _318  and  _319
REMARK  126  A    between atoms: _318  and  _321
REMARK  127  A    between atoms: _321  and  _322
REMARK  128  A    between atoms: _324  and  _326
REMARK  129  A    between atoms: _326  and  _327
REMARK  130  A    between atoms: _326  and  _329
REMARK  131  A    between atoms: _329  and  _330
REMARK  132  A    between atoms: _330  and  _331
REMARK  133  A    between atoms: _334  and  _336
REMARK  134  A    between atoms: _336  and  _337
REMARK  135  A    between atoms: _336  and  _339
REMARK  136  A    between atoms: _339  and  _340
REMARK  137  A    between atoms: _340  and  _341
REMARK                            x       y       z     vdW  Elec       q    Type
REMARK                         _______ _______ _______ _____ _____    ______ ____
ROOT
ATOM      1  CA  ALA A   1      44.209 -39.792  73.902  0.00  0.00    +0.133 C 
ATOM      2  CB  ALA A   1      44.160 -40.482  75.255  0.00  0.00    +0.027 C 
ENDROOT
BRANCH   1   3
ATOM      3  N   ALA A   1      43.571 -40.597  72.862  0.00  0.00    -0.239 NA
ATOM      4  H   ALA A   1      44.046 -41.464  72.540  0.00  0.00    +0.142 HD
ENDBRANCH   1   3
BRANCH   1   5
ATOM      5  C   ALA A   1      45.636 -39.500  73.522  0.00  0.00    +0.224 C 
ATOM      6  O   ALA A   1      46.404 -40.420  73.267  0.00  0.00    -0.287 OA
ENDBRANCH   1   5
TORSDOF 2
REMARK  Name = ../refined-set-2016/4cp5/4cp5_pocket.pdb
REMARK  137 active torsions:
REMARK  status: ('A' for Active; 'I' for Inactive)
REMARK    1  A    between atoms: _1  and  _3
REMARK    2  A    between atoms: _3  and  _4
REMARK    3  A    between atoms: _7  and  _9
REMARK    4  A    between atoms: _9  and  _10
REMARK    5  A    between atoms: _9  and  _12
REMARK    6  A    between atoms: _12  and  _13
REMARK    7  A    between atoms: _13  and  _14
REMARK    8  A    between atoms: _14  and  _15
REMARK    9  A    between atoms: _15  and  _16
REMARK   10  A    between atoms: _20  and  _22
REMARK   11  A    between atoms: _22  and  _23
REMARK   12  A    between atoms: _22  and  _25
REMARK   13  A    between atoms: _25  and  _26
REMARK   14  A    between atoms: _31  and  _33
REMARK   15  A    between atoms: _33  and  _34
REMARK   16  A    between atoms: _33  and  _36
REMARK   17  A    between atoms: _36  and  _37
REMARK   18  A    between atoms: _42  and  _43
REMARK   19  A    between atoms: _45  and  _47
REMARK   20  A    between atoms: _47  and  _48
REMARK   21  A    between atoms: _47  and  _50
REMARK   22  A    between atoms: _51  and  _52
REMARK   23  A    between atoms: _55  and  _57
REMARK   24  A    between atoms: _57  and  _58
REMARK   25  A    between atoms: _57  and  _60
REMARK   26  A    between atoms: _60  and  _61
REMARK   27  A    between atoms: _66  and  _68
REMARK   28  A    between atoms: _68  and  _69
REMARK   29  A    between atoms: _68  and  _71
REMARK   30  A    between atoms: _71  and  _72
REMARK   31  A    between atoms: _72  and  _73
REMARK   32  A    between atoms: _73  and  _74
REMARK   33  A    between atoms: _84  and  _85
REMARK   34  A    between atoms: _90  and  _92
REMARK   35  A    between atoms: _92  and  _93
REMARK   36  A    between atoms: _92  and  _95
REMARK   37  A    between atoms: _95  and  _96
REMARK   38  A    between atoms: _102  and  _104
REMARK   39  A    between atoms: _104  and  _105
REMARK   40  A    between atoms: _104  and  _107
REMARK   41  A    between atoms: _107  and  _108
REMARK   42  A    between atoms: _114  and  _116
REMARK   43  A    between atoms: _116  and  _117
REMARK   44  A    between atoms: _119  and  _121
REMARK   45  A    between atoms: _121  and  _122
REMARK   46  A    between atoms: _121  and  _124
REMARK   47  A    between atoms: _124  and  _125
REMARK   48  A    between atoms: _128  and  _130
REMARK   49  A    between atoms: _130  and  _131
REMARK   50  A    between atoms: _130  and  _133
REMARK   51  A    between atoms: _133  and  _134
REMARK   52  A    between atoms: _137  and  _139
REMARK   53  A    between atoms: _139  and  _140
REMARK   54  A    between atoms: _139  and  _142
REMARK   55  A    between atoms: _142  and  _143
REMARK   56  A    between atoms: _143  and  _144
REMARK   57  A    between atoms: _144  and  _145
REMARK   58  A    between atoms: _154  and  _156
REMARK   59  A    between atoms: _156  and  _157
REMARK   60  A    between atoms: _156  and  _159
REMARK   61  A    between atoms: _159  and  _160
REMARK   62  A    between atoms: _163  and  _165
REMARK   63  A    between atoms: _165  and  _166
REMARK   64  A    between atoms: _168  and  _170
REMARK   65  A    between atoms: _170  and  _171
REMARK   66  A    between atoms: _170  and  _173
REMARK   67  A    between atoms: _176  and  _178
REMARK   68  A    between atoms: _178  and  _179
REMARK   69  A    between atoms: _178  and  _181
REMARK   70  A    between atoms: _181  and  _182
REMARK   71  A    between atoms: _185  and  _187
REMARK   72  A    between atoms: _187  and  _188
REMARK   73  A    between atoms: _187  and  _190
REMARK   74  A    between atoms: _190  and  _191
REMARK   75  A    between atoms: _196  and  _198
REMARK   76  A    between atoms: _198  and  _199
REMARK   77  A    between atoms: _198  and  _201
REMARK   78  A    between atoms: _201  and  _202
REMARK   79  A    between atoms: _202  and  _203
REMARK   80  A    between atoms: _203  and  _204
REMARK   81  A    between atoms: _213  and  _215
REMARK   82  A    between atoms: _215  and  _216
REMARK   83  A    between atoms: _215  and  _218
REMARK   84  A    between atoms: _218  and  _219
REMARK   85  A    between atoms: _222  and  _224
REMARK   86  A    between atoms: _224  and  _225
REMARK   87  A    between atoms: _224  and  _227
REMARK   88  A    between atoms: _230  and  _232
REMARK   89  A    between atoms: _232  and  _233
REMARK   90  A    between atoms: _235  and  _237
REMARK   91  A    between atoms: _237  and  _238
REMARK   92  A    between atoms: _237  and  _240
REMARK   93  A    between atoms: _240  and  _241
REMARK   94  A    between atoms: _241  and  _242
REMARK   95  A    between atoms: _242  and  _243
REMARK   96  A    between atoms: _252  and  _254
REMARK   97  A    between atoms: _254  and  _255
REMARK   98  A    between atoms: _254  and  _257
REMARK   99  A    between atoms: _257  and  _258
REMARK  100  A    between atoms: _263  and  _265
REMARK  101  A    between atoms: _265  and  _266
REMARK  102  A    between atoms: _265  and  _268
REMARK  103  A    between atoms: _268  and  _269
REMARK  104  A    between atoms: _272  and  _274
REMARK  105  A    between atoms: _274  and  _275
REMARK  106  A    between atoms: _274  and  _277
REMARK  107  A    between atoms: _277  and  _278
REMARK  108  A    between atoms: _281  and  _283
REMARK  109  A    between atoms: _283  and  _284
REMARK  110  A    between atoms: _286  and  _288
REMARK  111  A    between atoms: _288  and  _289
REMARK  112  A    between atoms: _291  and  _293
REMARK  113  A    between atoms: _293  and  _294
REMARK  114  A    between atoms: _293  and  _296
REMARK  115  A    between atoms: _296  and  _297
REMARK  116  A    between atoms: _299  and  _301
REMARK  117  A    between atoms: _301  and  _302
REMARK  118  A    between atoms: _301  and  _304
REMARK  119  A    between atoms: _304  and  _305
REMARK  120  A    between atoms: _308  and  _310
REMARK  121  A    between atoms: _310  and  _311
REMARK  122  A    between atoms: _310  and  _313
REMARK  123  A    between atoms: _313  and  _314
REMARK  124  A    between atoms: _316  and  _318
REMARK  125  A    between atoms: _318  and  _319
REMARK  126  A    between atoms: _318  and  _321
REMARK  127  A    between atoms: _321  and  _322
REMARK  128  A    between atoms: _324  and  _326
REMARK  129  A    between atoms: _326  and  _327
REMARK  130  A    between atoms: _326  and  _329
REMARK  131  A    between atoms: _329  and  _330
REMARK  132  A    between atoms: _330  and  _331
REMARK  133  A    between atoms: _334  and  _336
REMARK  134  A    between atoms: _336  and  _337
REMARK  135  A    between atoms: _336  and  _339
REMARK  136  A    between atoms: _339  and  _340
REMARK  137  A    between atoms: _340  and  _341
REMARK                            x       y       z     vdW  Elec       q    Type
REMARK                         _______ _______ _______ _____ _____    ______ ____
ROOT
ATOM      1  CG  LYS A   1      49.162 -41.450  76.015  0.00  0.00    -0.000 C 
ENDROOT
BRANCH   1   2
ATOM      2  CB  LYS A   1      50.093 -40.255  76.224  0.00  0.00    +0.025 C 
BRANCH   2   3
ATOM      3  CA  LYS A   1      49.364 -38.906  76.219  0.00  0.00    +0.133 C 
BRANCH   3   4
ATOM      4  N   LYS A   1      48.789 -38.687  74.899  0.00  0.00    -0.239 NA
ATOM      5  H   LYS A   1      49.102 -39.309  74.127  0.00  0.00    +0.142 HD
ENDBRANCH   3   4
BRANCH   3   6
ATOM      6  C   LYS A   1      50.277 -37.749  76.675  0.00  0.00    +0.224 C 
ATOM      7  O   LYS A   1      50.636 -36.928  75.836  0.00  0.00    -0.287 OA
ENDBRANCH   3   6
ENDBRANCH   2   3
ENDBRANCH   1   2
BRANCH   1   8
ATOM      8  CD  LYS A   1      49.974 -42.666  75.640  0.00  0.00    -0.024 C 
BRANCH   8   9
ATOM      9  CE  LYS A   1      49.162 -43.925  75.652  0.00  0.00    -0.086 C 
BRANCH   9  10
ATOM     10  NZ  LYS A   1      50.027 -45.087  75.957  0.00  0.00    +0.380 N 
ATOM     11  HZ1 LYS A   1      50.466 -44.955  76.890  0.00  0.00    -0.089 HD
ATOM     12  HZ2 LYS A   1      49.452 -45.954  75.962  0.00  0.00    -0.089 HD
ATOM     13  HZ3 LYS A   1      50.768 -45.166  75.232  0.00  0.00    -0.089 HD
ENDBRANCH   9  10
ENDBRANCH   8   9
ENDBRANCH   1   8
TORSDOF 7
REMARK  Name = ../refined-set-2016/4cp5/4cp5_pocket.pdb
REMARK  137 active torsions:
REMARK  status: ('A' for Active; 'I' for Inactive)
REMARK    1  A    between atoms: _1  and  _3
REMARK    2  A    between atoms: _3  and  _4
REMARK    3  A    between atoms: _7  and  _9
REMARK    4  A    between atoms: _9  and  _10
REMARK    5  A    between atoms: _9  and  _12
REMARK    6  A    between atoms: _12  and  _13
REMARK    7  A    between atoms: _13  and  _14
REMARK    8  A    between atoms: _14  and  _15
REMARK    9  A    between atoms: _15  and  _16
REMARK   10  A    between atoms: _20  and  _22
REMARK   11  A    between atoms: _22  and  _23
REMARK   12  A    between atoms: _22  and  _25
REMARK   13  A    between atoms: _25  and  _26
REMARK   14  A    between atoms: _31  and  _33
REMARK   15  A    between atoms: _33  and  _34
REMARK   16  A    between atoms: _33  and  _36
REMARK   17  A    between atoms: _36  and  _37
REMARK   18  A    between atoms: _42  and  _43
REMARK   19  A    between atoms: _45  and  _47
REMARK   20  A    between atoms: _47  and  _48
REMARK   21  A    between atoms: _47  and  _50
REMARK   22  A    between atoms: _51  and  _52
REMARK   23  A    between atoms: _55  and  _57
REMARK   24  A    between atoms: _57  and  _58
REMARK   25  A    between atoms: _57  and  _60
REMARK   26  A    between atoms: _60  and  _61
REMARK   27  A    between atoms: _66  and  _68
REMARK   28  A    between atoms: _68  and  _69
REMARK   29  A    between atoms: _68  and  _71
REMARK   30  A    between atoms: _71  and  _72
REMARK   31  A    between atoms: _72  and  _73
REMARK   32  A    between atoms: _73  and  _74
REMARK   33  A    between atoms: _84  and  _85
REMARK   34  A    between atoms: _90  and  _92
REMARK   35  A    between atoms: _92  and  _93
REMARK   36  A    between atoms: _92  and  _95
REMARK   37  A    between atoms: _95  and  _96
REMARK   38  A    between atoms: _102  and  _104
REMARK   39  A    between atoms: _104  and  _105
REMARK   40  A    between atoms: _104  and  _107
REMARK   41  A    between atoms: _107  and  _108
REMARK   42  A    between atoms: _114  and  _116
REMARK   43  A    between atoms: _116  and  _117
REMARK   44  A    between atoms: _119  and  _121
REMARK   45  A    between atoms: _121  and  _122
REMARK   46  A    between atoms: _121  and  _124
REMARK   47  A    between atoms: _124  and  _125
REMARK   48  A    between atoms: _128  and  _130
REMARK   49  A    between atoms: _130  and  _131
REMARK   50  A    between atoms: _130  and  _133
REMARK   51  A    between atoms: _133  and  _134
REMARK   52  A    between atoms: _137  and  _139
REMARK   53  A    between atoms: _139  and  _140
REMARK   54  A    between atoms: _139  and  _142
REMARK   55  A    between atoms: _142  and  _143
REMARK   56  A    between atoms: _143  and  _144
REMARK   57  A    between atoms: _144  and  _145
REMARK   58  A    between atoms: _154  and  _156
REMARK   59  A    between atoms: _156  and  _157
REMARK   60  A    between atoms: _156  and  _159
REMARK   61  A    between atoms: _159  and  _160
REMARK   62  A    between atoms: _163  and  _165
REMARK   63  A    between atoms: _165  and  _166
REMARK   64  A    between atoms: _168  and  _170
REMARK   65  A    between atoms: _170  and  _171
REMARK   66  A    between atoms: _170  and  _173
REMARK   67  A    between atoms: _176  and  _178
REMARK   68  A    between atoms: _178  and  _179
REMARK   69  A    between atoms: _178  and  _181
REMARK   70  A    between atoms: _181  and  _182
REMARK   71  A    between atoms: _185  and  _187
REMARK   72  A    between atoms: _187  and  _188
REMARK   73  A    between atoms: _187  and  _190
REMARK   74  A    between atoms: _190  and  _191
REMARK   75  A    between atoms: _196  and  _198
REMARK   76  A    between atoms: _198  and  _199
REMARK   77  A    between atoms: _198  and  _201
REMARK   78  A    between atoms: _201  and  _202
REMARK   79  A    between atoms: _202  and  _203
REMARK   80  A    between atoms: _203  and  _204
REMARK   81  A    between atoms: _213  and  _215
REMARK   82  A    between atoms: _215  and  _216
REMARK   83  A    between atoms: _215  and  _218
REMARK   84  A    between atoms: _218  and  _219
REMARK   85  A    between atoms: _222  and  _224
REMARK   86  A    between atoms: _224  and  _225
REMARK   87  A    between atoms: _224  and  _227
REMARK   88  A    between atoms: _230  and  _232
REMARK   89  A    between atoms: _232  and  _233
REMARK   90  A    between atoms: _235  and  _237
REMARK   91  A    between atoms: _237  and  _238
REMARK   92  A    between atoms: _237  and  _240
REMARK   93  A    between atoms: _240  and  _241
REMARK   94  A    between atoms: _241  and  _242
REMARK   95  A    between atoms: _242  and  _243
REMARK   96  A    between atoms: _252  and  _254
REMARK   97  A    between atoms: _254  and  _255
REMARK   98  A    between atoms: _254  and  _257
REMARK   99  A    between atoms: _257  and  _258
REMARK  100  A    between atoms: _263  and  _265
REMARK  101  A    between atoms: _265  and  _266
REMARK  102  A    between atoms: _265  and  _268
REMARK  103  A    between atoms: _268  and  _269
REMARK  104  A    between atoms: _272  and  _274
REMARK  105  A    between atoms: _274  and  _275
REMARK  106  A    between atoms: _274  and  _277
REMARK  107  A    between atoms: _277  and  _278
REMARK  108  A    between atoms: _281  and  _283
REMARK  109  A    between atoms: _283  and  _284
REMARK  110  A    between atoms: _286  and  _288
REMARK  111  A    between atoms: _288  and  _289
REMARK  112  A    between atoms: _291  and  _293
REMARK  113  A    between atoms: _293  and  _294
REMARK  114  A    between atoms: _293  and  _296
REMARK  115  A    between atoms: _296  and  _297
REMARK  116  A    between atoms: _299  and  _301
REMARK  117  A    between atoms: _301  and  _302
REMARK  118  A    between atoms: _301  and  _304
REMARK  119  A    between atoms: _304  and  _305
REMARK  120  A    between atoms: _308  and  _310
REMARK  121  A    between atoms: _310  and  _311
REMARK  122  A    between atoms: _310  and  _313
REMARK  123  A    between atoms: _313  and  _314
REMARK  124  A    between atoms: _316  and  _318
REMARK  125  A    between atoms: _318  and  _319
REMARK  126  A    between atoms: _318  and  _321
REMARK  127  A    between atoms: _321  and  _322
REMARK  128  A    between atoms: _324  and  _326
REMARK  129  A    between atoms: _326  and  _327
REMARK  130  A    between atoms: _326  and  _329
REMARK  131  A    between atoms: _329  and  _330
REMARK  132  A    between atoms: _330  and  _331
REMARK  133  A    between atoms: _334  and  _336
REMARK  134  A    between atoms: _336  and  _337
REMARK  135  A    between atoms: _336  and  _339
REMARK  136  A    between atoms: _339  and  _340
REMARK  137  A    between atoms: _340  and  _341
REMARK                            x       y       z     vdW  Elec       q    Type
REMARK                         _______ _______ _______ _____ _____    ______ ____
ROOT
ATOM      1  C   HIS A   1      41.484 -47.628  81.086  0.00  0.00    +0.239 C 
ATOM      2  N   TYR A   2      42.473 -47.911  81.948  0.00  0.00    -0.298 N 
ATOM      3  H   TYR A   2      42.584 -47.292  82.776  0.00  0.00    +0.150 HD
ATOM      4  O   HIS A   1      41.227 -48.316  80.096  0.00  0.00    -0.274 OA
ENDROOT
BRANCH   1   5
ATOM      5  CA  HIS A   1      40.635 -46.389  81.402  0.00  0.00    +0.151 C 
BRANCH   5   6
ATOM      6  N   HIS A   1      40.213 -46.392  82.808  0.00  0.00    -0.238 NA
ATOM      7  H   HIS A   1      40.564 -45.628  83.421  0.00  0.00    +0.142 HD
ENDBRANCH   5   6
BRANCH   5   8
ATOM      8  CB  HIS A   1      41.402 -45.082  81.062  0.00  0.00    +0.074 C 
BRANCH   8   9
ATOM      9  CG  HIS A   1      41.883 -45.006  79.644  0.00  0.00    +0.082 A 
ATOM     10  CD2 HIS A   1      43.129 -45.162  79.144  0.00  0.00    +0.115 A 
ATOM     11  NE2 HIS A   1      43.028 -45.022  77.777  0.00  0.00    -0.221 NA
ATOM     12  CE1 HIS A   1      41.748 -44.783  77.501  0.00  0.00    +0.199 A 
ATOM     13  ND1 HIS A   1      41.011 -44.772  78.598  0.00  0.00    -0.227 NA
ENDBRANCH   8   9
ENDBRANCH   5   8
ENDBRANCH   1   5
BRANCH   2  14
ATOM     14  CA  TYR A   2      43.404 -49.025  81.806  0.00  0.00    +0.141 C 
BRANCH  14  15
ATOM     15  C   TYR A   2      42.947 -50.335  82.512  0.00  0.00    +0.227 C 
ATOM     16  O   TYR A   2      43.776 -51.231  82.713  0.00  0.00    -0.286 OA
ENDBRANCH  14  15
BRANCH  14  17
ATOM     17  CB  TYR A   2      44.807 -48.595  82.289  0.00  0.00    +0.054 C 
BRANCH  17  18
ATOM     18  CG  TYR A   2      45.549 -47.658  81.357  0.00  0.00    -0.020 A 
ATOM     19  CD2 TYR A   2      45.961 -46.398  81.785  0.00  0.00    -0.001 A 
ATOM     20  CE2 TYR A   2      46.678 -45.546  80.944  0.00  0.00    +0.036 A 
ATOM     21  CZ  TYR A   2      47.005 -45.960  79.661  0.00  0.00    +0.134 A 
ATOM     22  CE1 TYR A   2      46.629 -47.219  79.222  0.00  0.00    +0.036 A 
ATOM     23  CD1 TYR A   2      45.922 -48.067  80.076  0.00  0.00    -0.001 A 
BRANCH  21  24
ATOM     24  OH  TYR A   2      47.717 -45.138  78.823  0.00  0.00    -0.506 OA
ATOM     25  HH  TYR A   2      47.857 -45.594  77.956  0.00  0.00    +0.292 HD
ENDBRANCH  21  24
ENDBRANCH  17  18
ENDBRANCH  14  17
ENDBRANCH   2  14
TORSDOF 9
REMARK  Name = ../refined-set-2016/4cp5/4cp5_pocket.pdb
REMARK  137 active torsions:
REMARK  status: ('A' for Active; 'I' for Inactive)
REMARK    1  A    between atoms: _1  and  _3
REMARK    2  A    between atoms: _3  and  _4
REMARK    3  A    between atoms: _7  and  _9
REMARK    4  A    between atoms: _9  and  _10
REMARK    5  A    between atoms: _9  and  _12
REMARK    6  A    between atoms: _12  and  _13
REMARK    7  A    between atoms: _13  and  _14
REMARK    8  A    between atoms: _14  and  _15
REMARK    9  A    between atoms: _15  and  _16
REMARK   10  A    between atoms: _20  and  _22
REMARK   11  A    between atoms: _22  and  _23
REMARK   12  A    between atoms: _22  and  _25
REMARK   13  A    between atoms: _25  and  _26
REMARK   14  A    between atoms: _31  and  _33
REMARK   15  A    between atoms: _33  and  _34
REMARK   16  A    between atoms: _33  and  _36
REMARK   17  A    between atoms: _36  and  _37
REMARK   18  A    between atoms: _42  and  _43
REMARK   19  A    between atoms: _45  and  _47
REMARK   20  A    between atoms: _47  and  _48
REMARK   21  A    between atoms: _47  and  _50
REMARK   22  A    between atoms: _51  and  _52
REMARK   23  A    between atoms: _55  and  _57
REMARK   24  A    between atoms: _57  and  _58
REMARK   25  A    between atoms: _57  and  _60
REMARK   26  A    between atoms: _60  and  _61
REMARK   27  A    between atoms: _66  and  _68
REMARK   28  A    between atoms: _68  and  _69
REMARK   29  A    between atoms: _68  and  _71
REMARK   30  A    between atoms: _71  and  _72
REMARK   31  A    between atoms: _72  and  _73
REMARK   32  A    between atoms: _73  and  _74
REMARK   33  A    between atoms: _84  and  _85
REMARK   34  A    between atoms: _90  and  _92
REMARK   35  A    between atoms: _92  and  _93
REMARK   36  A    between atoms: _92  and  _95
REMARK   37  A    between atoms: _95  and  _96
REMARK   38  A    between atoms: _102  and  _104
REMARK   39  A    between atoms: _104  and  _105
REMARK   40  A    between atoms: _104  and  _107
REMARK   41  A    between atoms: _107  and  _108
REMARK   42  A    between atoms: _114  and  _116
REMARK   43  A    between atoms: _116  and  _117
REMARK   44  A    between atoms: _119  and  _121
REMARK   45  A    between atoms: _121  and  _122
REMARK   46  A    between atoms: _121  and  _124
REMARK   47  A    between atoms: _124  and  _125
REMARK   48  A    between atoms: _128  and  _130
REMARK   49  A    between atoms: _130  and  _131
REMARK   50  A    between atoms: _130  and  _133
REMARK   51  A    between atoms: _133  and  _134
REMARK   52  A    between atoms: _137  and  _139
REMARK   53  A    between atoms: _139  and  _140
REMARK   54  A    between atoms: _139  and  _142
REMARK   55  A    between atoms: _142  and  _143
REMARK   56  A    between atoms: _143  and  _144
REMARK   57  A    between atoms: _144  and  _145
REMARK   58  A    between atoms: _154  and  _156
REMARK   59  A    between atoms: _156  and  _157
REMARK   60  A    between atoms: _156  and  _159
REMARK   61  A    between atoms: _159  and  _160
REMARK   62  A    between atoms: _163  and  _165
REMARK   63  A    between atoms: _165  and  _166
REMARK   64  A    between atoms: _168  and  _170
REMARK   65  A    between atoms: _170  and  _171
REMARK   66  A    between atoms: _170  and  _173
REMARK   67  A    between atoms: _176  and  _178
REMARK   68  A    between atoms: _178  and  _179
REMARK   69  A    between atoms: _178  and  _181
REMARK   70  A    between atoms: _181  and  _182
REMARK   71  A    between atoms: _185  and  _187
REMARK   72  A    between atoms: _187  and  _188
REMARK   73  A    between atoms: _187  and  _190
REMARK   74  A    between atoms: _190  and  _191
REMARK   75  A    between atoms: _196  and  _198
REMARK   76  A    between atoms: _198  and  _199
REMARK   77  A    between atoms: _198  and  _201
REMARK   78  A    between atoms: _201  and  _202
REMARK   79  A    between atoms: _202  and  _203
REMARK   80  A    between atoms: _203  and  _204
REMARK   81  A    between atoms: _213  and  _215
REMARK   82  A    between atoms: _215  and  _216
REMARK   83  A    between atoms: _215  and  _218
REMARK   84  A    between atoms: _218  and  _219
REMARK   85  A    between atoms: _222  and  _224
REMARK   86  A    between atoms: _224  and  _225
REMARK   87  A    between atoms: _224  and  _227
REMARK   88  A    between atoms: _230  and  _232
REMARK   89  A    between atoms: _232  and  _233
REMARK   90  A    between atoms: _235  and  _237
REMARK   91  A    between atoms: _237  and  _238
REMARK   92  A    between atoms: _237  and  _240
REMARK   93  A    between atoms: _240  and  _241
REMARK   94  A    between atoms: _241  and  _242
REMARK   95  A    between atoms: _242  and  _243
REMARK   96  A    between atoms: _252  and  _254
REMARK   97  A    between atoms: _254  and  _255
REMARK   98  A    between atoms: _254  and  _257
REMARK   99  A    between atoms: _257  and  _258
REMARK  100  A    between atoms: _263  and  _265
REMARK  101  A    between atoms: _265  and  _266
REMARK  102  A    between atoms: _265  and  _268
REMARK  103  A    between atoms: _268  and  _269
REMARK  104  A    between atoms: _272  and  _274
REMARK  105  A    between atoms: _274  and  _275
REMARK  106  A    between atoms: _274  and  _277
REMARK  107  A    between atoms: _277  and  _278
REMARK  108  A    between atoms: _281  and  _283
REMARK  109  A    between atoms: _283  and  _284
REMARK  110  A    between atoms: _286  and  _288
REMARK  111  A    between atoms: _288  and  _289
REMARK  112  A    between atoms: _291  and  _293
REMARK  113  A    between atoms: _293  and  _294
REMARK  114  A    between atoms: _293  and  _296
REMARK  115  A    between atoms: _296  and  _297
REMARK  116  A    between atoms: _299  and  _301
REMARK  117  A    between atoms: _301  and  _302
REMARK  118  A    between atoms: _301  and  _304
REMARK  119  A    between atoms: _304  and  _305
REMARK  120  A    between atoms: _308  and  _310
REMARK  121  A    between atoms: _310  and  _311
REMARK  122  A    between atoms: _310  and  _313
REMARK  123  A    between atoms: _313  and  _314
REMARK  124  A    between atoms: _316  and  _318
REMARK  125  A    between atoms: _318  and  _319
REMARK  126  A    between atoms: _318  and  _321
REMARK  127  A    between atoms: _321  and  _322
REMARK  128  A    between atoms: _324  and  _326
REMARK  129  A    between atoms: _326  and  _327
REMARK  130  A    between atoms: _326  and  _329
REMARK  131  A    between atoms: _329  and  _330
REMARK  132  A    between atoms: _330  and  _331
REMARK  133  A    between atoms: _334  and  _336
REMARK  134  A    between atoms: _336  and  _337
REMARK  135  A    between atoms: _336  and  _339
REMARK  136  A    between atoms: _339  and  _340
REMARK  137  A    between atoms: _340  and  _341
REMARK                            x       y       z     vdW  Elec       q    Type
REMARK                         _______ _______ _______ _____ _____    ______ ____
ROOT
ATOM      1  C   GLU A   1      43.133 -55.003  81.382  0.00  0.00    +0.243 C 
ATOM      2  N   HIS A   2      44.032 -54.139  81.904  0.00  0.00    -0.298 N 
ATOM      3  H   HIS A   2      43.755 -53.141  82.000  0.00  0.00    +0.150 HD
ATOM      4  O   GLU A   1      43.355 -56.210  81.264  0.00  0.00    -0.273 OA
ENDROOT
BRANCH   1   5
ATOM      5  CA  GLU A   1      41.758 -54.440  80.959  0.00  0.00    +0.167 C 
BRANCH   5   6
ATOM      6  N   GLU A   1      41.424 -53.161  81.599  0.00  0.00    -0.234 NA
ATOM      7  H   GLU A   1      41.216 -52.339  80.997  0.00  0.00    +0.142 HD
ENDBRANCH   5   6
BRANCH   5   8
ATOM      8  CB  GLU A   1      41.627 -54.371  79.423  0.00  0.00    +0.006 C 
ATOM      9  CG  GLU A   1      42.570 -53.407  78.714  0.00  0.00    +0.083 C 
BRANCH   9  10
ATOM     10  CD  GLU A   1      42.350 -53.229  77.217  0.00  0.00    +0.388 C 
ATOM     11  OE2 GLU A   1      42.390 -52.066  76.753  0.00  0.00    -0.241 OA
ATOM     12  OE1 GLU A   1      42.151 -54.241  76.505  0.00  0.00    -0.241 OA
ENDBRANCH   9  10
ENDBRANCH   5   8
ENDBRANCH   1   5
BRANCH   2  13
ATOM     13  CA  HIS A   2      45.372 -54.529  82.341  0.00  0.00    +0.143 C 
BRANCH  13  14
ATOM     14  C   HIS A   2      45.544 -54.435  83.864  0.00  0.00    +0.227 C 
ATOM     15  O   HIS A   2      46.672 -54.566  84.339  0.00  0.00    -0.286 OA
ENDBRANCH  13  14
BRANCH  13  16
ATOM     16  CB  HIS A   2      46.449 -53.664  81.643  0.00  0.00    +0.075 C 
BRANCH  16  17
ATOM     17  CG  HIS A   2      46.299 -53.538  80.155  0.00  0.00    +0.082 A 
ATOM     18  CD2 HIS A   2      46.029 -52.444  79.401  0.00  0.00    +0.115 A 
ATOM     19  NE2 HIS A   2      46.020 -52.858  78.088  0.00  0.00    -0.221 NA
ATOM     20  CE1 HIS A   2      46.275 -54.169  78.088  0.00  0.00    +0.199 A 
ATOM     21  ND1 HIS A   2      46.478 -54.626  79.314  0.00  0.00    -0.227 NA
ENDBRANCH  16  17
ENDBRANCH  13  16
ENDBRANCH   2  13
TORSDOF 8
REMARK  Name = ../refined-set-2016/4cp5/4cp5_pocket.pdb
REMARK  137 active torsions:
REMARK  status: ('A' for Active; 'I' for Inactive)
REMARK    1  A    between atoms: _1  and  _3
REMARK    2  A    between atoms: _3  and  _4
REMARK    3  A    between atoms: _7  and  _9
REMARK    4  A    between atoms: _9  and  _10
REMARK    5  A    between atoms: _9  and  _12
REMARK    6  A    between atoms: _12  and  _13
REMARK    7  A    between atoms: _13  and  _14
REMARK    8  A    between atoms: _14  and  _15
REMARK    9  A    between atoms: _15  and  _16
REMARK   10  A    between atoms: _20  and  _22
REMARK   11  A    between atoms: _22  and  _23
REMARK   12  A    between atoms: _22  and  _25
REMARK   13  A    between atoms: _25  and  _26
REMARK   14  A    between atoms: _31  and  _33
REMARK   15  A    between atoms: _33  and  _34
REMARK   16  A    between atoms: _33  and  _36
REMARK   17  A    between atoms: _36  and  _37
REMARK   18  A    between atoms: _42  and  _43
REMARK   19  A    between atoms: _45  and  _47
REMARK   20  A    between atoms: _47  and  _48
REMARK   21  A    between atoms: _47  and  _50
REMARK   22  A    between atoms: _51  and  _52
REMARK   23  A    between atoms: _55  and  _57
REMARK   24  A    between atoms: _57  and  _58
REMARK   25  A    between atoms: _57  and  _60
REMARK   26  A    between atoms: _60  and  _61
REMARK   27  A    between atoms: _66  and  _68
REMARK   28  A    between atoms: _68  and  _69
REMARK   29  A    between atoms: _68  and  _71
REMARK   30  A    between atoms: _71  and  _72
REMARK   31  A    between atoms: _72  and  _73
REMARK   32  A    between atoms: _73  and  _74
REMARK   33  A    between atoms: _84  and  _85
REMARK   34  A    between atoms: _90  and  _92
REMARK   35  A    between atoms: _92  and  _93
REMARK   36  A    between atoms: _92  and  _95
REMARK   37  A    between atoms: _95  and  _96
REMARK   38  A    between atoms: _102  and  _104
REMARK   39  A    between atoms: _104  and  _105
REMARK   40  A    between atoms: _104  and  _107
REMARK   41  A    between atoms: _107  and  _108
REMARK   42  A    between atoms: _114  and  _116
REMARK   43  A    between atoms: _116  and  _117
REMARK   44  A    between atoms: _119  and  _121
REMARK   45  A    between atoms: _121  and  _122
REMARK   46  A    between atoms: _121  and  _124
REMARK   47  A    between atoms: _124  and  _125
REMARK   48  A    between atoms: _128  and  _130
REMARK   49  A    between atoms: _130  and  _131
REMARK   50  A    between atoms: _130  and  _133
REMARK   51  A    between atoms: _133  and  _134
REMARK   52  A    between atoms: _137  and  _139
REMARK   53  A    between atoms: _139  and  _140
REMARK   54  A    between atoms: _139  and  _142
REMARK   55  A    between atoms: _142  and  _143
REMARK   56  A    between atoms: _143  and  _144
REMARK   57  A    between atoms: _144  and  _145
REMARK   58  A    between atoms: _154  and  _156
REMARK   59  A    between atoms: _156  and  _157
REMARK   60  A    between atoms: _156  and  _159
REMARK   61  A    between atoms: _159  and  _160
REMARK   62  A    between atoms: _163  and  _165
REMARK   63  A    between atoms: _165  and  _166
REMARK   64  A    between atoms: _168  and  _170
REMARK   65  A    between atoms: _170  and  _171
REMARK   66  A    between atoms: _170  and  _173
REMARK   67  A    between atoms: _176  and  _178
REMARK   68  A    between atoms: _178  and  _179
REMARK   69  A    between atoms: _178  and  _181
REMARK   70  A    between atoms: _181  and  _182
REMARK   71  A    between atoms: _185  and  _187
REMARK   72  A    between atoms: _187  and  _188
REMARK   73  A    between atoms: _187  and  _190
REMARK   74  A    between atoms: _190  and  _191
REMARK   75  A    between atoms: _196  and  _198
REMARK   76  A    between atoms: _198  and  _199
REMARK   77  A    between atoms: _198  and  _201
REMARK   78  A    between atoms: _201  and  _202
REMARK   79  A    between atoms: _202  and  _203
REMARK   80  A    between atoms: _203  and  _204
REMARK   81  A    between atoms: _213  and  _215
REMARK   82  A    between atoms: _215  and  _216
REMARK   83  A    between atoms: _215  and  _218
REMARK   84  A    between atoms: _218  and  _219
REMARK   85  A    between atoms: _222  and  _224
REMARK   86  A    between atoms: _224  and  _225
REMARK   87  A    between atoms: _224  and  _227
REMARK   88  A    between atoms: _230  and  _232
REMARK   89  A    between atoms: _232  and  _233
REMARK   90  A    between atoms: _235  and  _237
REMARK   91  A    between atoms: _237  and  _238
REMARK   92  A    between atoms: _237  and  _240
REMARK   93  A    between atoms: _240  and  _241
REMARK   94  A    between atoms: _241  and  _242
REMARK   95  A    between atoms: _242  and  _243
REMARK   96  A    between atoms: _252  and  _254
REMARK   97  A    between atoms: _254  and  _255
REMARK   98  A    between atoms: _254  and  _257
REMARK   99  A    between atoms: _257  and  _258
REMARK  100  A    between atoms: _263  and  _265
REMARK  101  A    between atoms: _265  and  _266
REMARK  102  A    between atoms: _265  and  _268
REMARK  103  A    between atoms: _268  and  _269
REMARK  104  A    between atoms: _272  and  _274
REMARK  105  A    between atoms: _274  and  _275
REMARK  106  A    between atoms: _274  and  _277
REMARK  107  A    between atoms: _277  and  _278
REMARK  108  A    between atoms: _281  and  _283
REMARK  109  A    between atoms: _283  and  _284
REMARK  110  A    between atoms: _286  and  _288
REMARK  111  A    between atoms: _288  and  _289
REMARK  112  A    between atoms: _291  and  _293
REMARK  113  A    between atoms: _293  and  _294
REMARK  114  A    between atoms: _293  and  _296
REMARK  115  A    between atoms: _296  and  _297
REMARK  116  A    between atoms: _299  and  _301
REMARK  117  A    between atoms: _301  and  _302
REMARK  118  A    between atoms: _301  and  _304
REMARK  119  A    between atoms: _304  and  _305
REMARK  120  A    between atoms: _308  and  _310
REMARK  121  A    between atoms: _310  and  _311
REMARK  122  A    between atoms: _310  and  _313
REMARK  123  A    between atoms: _313  and  _314
REMARK  124  A    between atoms: _316  and  _318
REMARK  125  A    between atoms: _318  and  _319
REMARK  126  A    between atoms: _318  and  _321
REMARK  127  A    between atoms: _321  and  _322
REMARK  128  A    between atoms: _324  and  _326
REMARK  129  A    between atoms: _326  and  _327
REMARK  130  A    between atoms: _326  and  _329
REMARK  131  A    between atoms: _329  and  _330
REMARK  132  A    between atoms: _330  and  _331
REMARK  133  A    between atoms: _334  and  _336
REMARK  134  A    between atoms: _336  and  _337
REMARK  135  A    between atoms: _336  and  _339
REMARK  136  A    between atoms: _339  and  _340
REMARK  137  A    between atoms: _340  and  _341
REMARK                            x       y       z     vdW  Elec       q    Type
REMARK                         _______ _______ _______ _____ _____    ______ ____
ROOT
ATOM      1  C   PRO A   2      52.886 -54.264  86.068  0.00  0.00    +0.241 C 
ATOM      2  O   PRO A   2      53.259 -53.455  86.925  0.00  0.00    -0.273 OA
ATOM      3  N   PHE A   3      52.672 -53.933  84.775  0.00  0.00    -0.297 N 
ATOM      4  H   PHE A   3      52.342 -54.682  84.133  0.00  0.00    +0.150 HD
ENDROOT
BRANCH   1   8
ATOM      5  C   ARG A   1      50.343 -56.097  85.630  0.00  0.00    +0.241 C 
ATOM      6  O   ARG A   1      49.941 -55.137  86.298  0.00  0.00    -0.273 OA
ATOM      7  N   PRO A   2      51.658 -56.467  85.626  0.00  0.00    -0.272 N 
ATOM      8  CA  PRO A   2      52.638 -55.729  86.462  0.00  0.00    +0.152 C 
ATOM      9  CB  PRO A   2      53.913 -56.578  86.348  0.00  0.00    +0.031 C 
ATOM     10  CG  PRO A   2      53.768 -57.302  85.043  0.00  0.00    +0.024 C 
ATOM     11  CD  PRO A   2      52.306 -57.599  84.921  0.00  0.00    +0.094 C 
BRANCH   5  12
ATOM     12  CA  ARG A   1      49.316 -56.908  84.799  0.00  0.00    +0.145 C 
BRANCH  12  13
ATOM     13  N   ARG A   1      47.985 -56.858  85.418  0.00  0.00    -0.238 NA
ATOM     14  H   ARG A   1      47.285 -56.204  85.013  0.00  0.00    +0.142 HD
ENDBRANCH  12  13
BRANCH  12  15
ATOM     15  CB  ARG A   1      49.266 -56.419  83.336  0.00  0.00    +0.030 C 
BRANCH  15  16
ATOM     16  CG  ARG A   1      48.218 -57.114  82.449  0.00  0.00    +0.045 C 
BRANCH  16  17
ATOM     17  CD  ARG A   1      48.683 -58.431  81.836  0.00  0.00    +0.174 C 
BRANCH  17  18
ATOM     18  NE  ARG A   1      49.677 -58.254  80.773  0.00  0.00    -0.265 N 
ATOM     19  HE  ARG A   1      50.681 -58.274  81.045  0.00  0.00    +0.259 HD
ATOM     20  CZ  ARG A   1      49.391 -58.069  79.485  0.00  0.00    +0.342 C 
ATOM     21  NH2 ARG A   1      48.127 -58.005  79.079  0.00  0.00    -0.292 N 
ATOM     22 HH21 ARG A   1      47.354 -58.100  79.768  0.00  0.00    +0.255 HD
ATOM     23 HH22 ARG A   1      47.911 -57.860  78.072  0.00  0.00    +0.255 HD
ATOM     24  NH1 ARG A   1      50.366 -57.927  78.595  0.00  0.00    -0.292 N 
ATOM     25 HH11 ARG A   1      51.359 -57.960  78.902  0.00  0.00    +0.255 HD
ATOM     26 HH12 ARG A   1      50.137 -57.783  77.591  0.00  0.00    +0.255 HD
ENDBRANCH  17  18
ENDBRANCH  16  17
ENDBRANCH  15  16
ENDBRANCH  12  15
ENDBRANCH   5  12
ENDBRANCH   1   8
BRANCH   3  27
ATOM     27  CA  PHE A   3      52.871 -52.599  84.214  0.00  0.00    +0.153 C 
BRANCH  27  28
ATOM     28  C   PHE A   3      51.689 -51.633  84.434  0.00  0.00    +0.241 C 
ATOM     29  N   PHE A   4      50.542 -52.128  84.960  0.00  0.00    -0.298 N 
ATOM     30  H   PHE A   4      50.511 -53.140  85.197  0.00  0.00    +0.150 HD
ATOM     31  O   PHE A   3      51.828 -50.446  84.121  0.00  0.00    -0.273 OA
BRANCH  29  32
ATOM     32  CA  PHE A   4      49.338 -51.322  85.217  0.00  0.00    +0.141 C 
BRANCH  32  33
ATOM     33  C   PHE A   4      49.625 -50.021  85.994  0.00  0.00    +0.227 C 
ATOM     34  O   PHE A   4      49.184 -48.949  85.562  0.00  0.00    -0.286 OA
ENDBRANCH  32  33
BRANCH  32  35
ATOM     35  CB  PHE A   4      48.234 -52.151  85.903  0.00  0.00    +0.054 C 
BRANCH  35  36
ATOM     36  CG  PHE A   4      46.967 -51.395  86.240  0.00  0.00    -0.020 A 
ATOM     37  CD2 PHE A   4      46.709 -50.986  87.544  0.00  0.00    -0.004 A 
ATOM     38  CE2 PHE A   4      45.538 -50.292  87.857  0.00  0.00    -0.000 A 
ATOM     39  CZ  PHE A   4      44.613 -50.020  86.872  0.00  0.00    -0.000 A 
ATOM     40  CE1 PHE A   4      44.853 -50.415  85.573  0.00  0.00    -0.000 A 
ATOM     41  CD1 PHE A   4      46.029 -51.099  85.256  0.00  0.00    -0.004 A 
ENDBRANCH  35  36
ENDBRANCH  32  35
ENDBRANCH  29  32
ENDBRANCH  27  28
BRANCH  27  42
ATOM     42  CB  PHE A   3      53.244 -52.688  82.721  0.00  0.00    +0.055 C 
BRANCH  42  43
ATOM     43  CG  PHE A   3      52.272 -53.455  81.857  0.00  0.00    -0.020 A 
ATOM     44  CD2 PHE A   3      52.525 -54.773  81.501  0.00  0.00    -0.004 A 
ATOM     45  CE2 PHE A   3      51.628 -55.479  80.692  0.00  0.00    -0.000 A 
ATOM     46  CZ  PHE A   3      50.479 -54.863  80.228  0.00  0.00    -0.000 A 
ATOM     47  CE1 PHE A   3      50.211 -53.557  80.575  0.00  0.00    -0.000 A 
ATOM     48  CD1 PHE A   3      51.118 -52.847  81.369  0.00  0.00    -0.004 A 
ENDBRANCH  42  43
ENDBRANCH  27  42
ENDBRANCH   3  27
TORSDOF 15
REMARK  Name = ../refined-set-2016/4cp5/4cp5_pocket.pdb
REMARK  137 active torsions:
REMARK  status: ('A' for Active; 'I' for Inactive)
REMARK    1  A    between atoms: _1  and  _3
REMARK    2  A    between atoms: _3  and  _4
REMARK    3  A    between atoms: _7  and  _9
REMARK    4  A    between atoms: _9  and  _10
REMARK    5  A    between atoms: _9  and  _12
REMARK    6  A    between atoms: _12  and  _13
REMARK    7  A    between atoms: _13  and  _14
REMARK    8  A    between atoms: _14  and  _15
REMARK    9  A    between atoms: _15  and  _16
REMARK   10  A    between atoms: _20  and  _22
REMARK   11  A    between atoms: _22  and  _23
REMARK   12  A    between atoms: _22  and  _25
REMARK   13  A    between atoms: _25  and  _26
REMARK   14  A    between atoms: _31  and  _33
REMARK   15  A    between atoms: _33  and  _34
REMARK   16  A    between atoms: _33  and  _36
REMARK   17  A    between atoms: _36  and  _37
REMARK   18  A    between atoms: _42  and  _43
REMARK   19  A    between atoms: _45  and  _47
REMARK   20  A    between atoms: _47  and  _48
REMARK   21  A    between atoms: _47  and  _50
REMARK   22  A    between atoms: _51  and  _52
REMARK   23  A    between atoms: _55  and  _57
REMARK   24  A    between atoms: _57  and  _58
REMARK   25  A    between atoms: _57  and  _60
REMARK   26  A    between atoms: _60  and  _61
REMARK   27  A    between atoms: _66  and  _68
REMARK   28  A    between atoms: _68  and  _69
REMARK   29  A    between atoms: _68  and  _71
REMARK   30  A    between atoms: _71  and  _72
REMARK   31  A    between atoms: _72  and  _73
REMARK   32  A    between atoms: _73  and  _74
REMARK   33  A    between atoms: _84  and  _85
REMARK   34  A    between atoms: _90  and  _92
REMARK   35  A    between atoms: _92  and  _93
REMARK   36  A    between atoms: _92  and  _95
REMARK   37  A    between atoms: _95  and  _96
REMARK   38  A    between atoms: _102  and  _104
REMARK   39  A    between atoms: _104  and  _105
REMARK   40  A    between atoms: _104  and  _107
REMARK   41  A    between atoms: _107  and  _108
REMARK   42  A    between atoms: _114  and  _116
REMARK   43  A    between atoms: _116  and  _117
REMARK   44  A    between atoms: _119  and  _121
REMARK   45  A    between atoms: _121  and  _122
REMARK   46  A    between atoms: _121  and  _124
REMARK   47  A    between atoms: _124  and  _125
REMARK   48  A    between atoms: _128  and  _130
REMARK   49  A    between atoms: _130  and  _131
REMARK   50  A    between atoms: _130  and  _133
REMARK   51  A    between atoms: _133  and  _134
REMARK   52  A    between atoms: _137  and  _139
REMARK   53  A    between atoms: _139  and  _140
REMARK   54  A    between atoms: _139  and  _142
REMARK   55  A    between atoms: _142  and  _143
REMARK   56  A    between atoms: _143  and  _144
REMARK   57  A    between atoms: _144  and  _145
REMARK   58  A    between atoms: _154  and  _156
REMARK   59  A    between atoms: _156  and  _157
REMARK   60  A    between atoms: _156  and  _159
REMARK   61  A    between atoms: _159  and  _160
REMARK   62  A    between atoms: _163  and  _165
REMARK   63  A    between atoms: _165  and  _166
REMARK   64  A    between atoms: _168  and  _170
REMARK   65  A    between atoms: _170  and  _171
REMARK   66  A    between atoms: _170  and  _173
REMARK   67  A    between atoms: _176  and  _178
REMARK   68  A    between atoms: _178  and  _179
REMARK   69  A    between atoms: _178  and  _181
REMARK   70  A    between atoms: _181  and  _182
REMARK   71  A    between atoms: _185  and  _187
REMARK   72  A    between atoms: _187  and  _188
REMARK   73  A    between atoms: _187  and  _190
REMARK   74  A    between atoms: _190  and  _191
REMARK   75  A    between atoms: _196  and  _198
REMARK   76  A    between atoms: _198  and  _199
REMARK   77  A    between atoms: _198  and  _201
REMARK   78  A    between atoms: _201  and  _202
REMARK   79  A    between atoms: _202  and  _203
REMARK   80  A    between atoms: _203  and  _204
REMARK   81  A    between atoms: _213  and  _215
REMARK   82  A    between atoms: _215  and  _216
REMARK   83  A    between atoms: _215  and  _218
REMARK   84  A    between atoms: _218  and  _219
REMARK   85  A    between atoms: _222  and  _224
REMARK   86  A    between atoms: _224  and  _225
REMARK   87  A    between atoms: _224  and  _227
REMARK   88  A    between atoms: _230  and  _232
REMARK   89  A    between atoms: _232  and  _233
REMARK   90  A    between atoms: _235  and  _237
REMARK   91  A    between atoms: _237  and  _238
REMARK   92  A    between atoms: _237  and  _240
REMARK   93  A    between atoms: _240  and  _241
REMARK   94  A    between atoms: _241  and  _242
REMARK   95  A    between atoms: _242  and  _243
REMARK   96  A    between atoms: _252  and  _254
REMARK   97  A    between atoms: _254  and  _255
REMARK   98  A    between atoms: _254  and  _257
REMARK   99  A    between atoms: _257  and  _258
REMARK  100  A    between atoms: _263  and  _265
REMARK  101  A    between atoms: _265  and  _266
REMARK  102  A    between atoms: _265  and  _268
REMARK  103  A    between atoms: _268  and  _269
REMARK  104  A    between atoms: _272  and  _274
REMARK  105  A    between atoms: _274  and  _275
REMARK  106  A    between atoms: _274  and  _277
REMARK  107  A    between atoms: _277  and  _278
REMARK  108  A    between atoms: _281  and  _283
REMARK  109  A    between atoms: _283  and  _284
REMARK  110  A    between atoms: _286  and  _288
REMARK  111  A    between atoms: _288  and  _289
REMARK  112  A    between atoms: _291  and  _293
REMARK  113  A    between atoms: _293  and  _294
REMARK  114  A    between atoms: _293  and  _296
REMARK  115  A    between atoms: _296  and  _297
REMARK  116  A    between atoms: _299  and  _301
REMARK  117  A    between atoms: _301  and  _302
REMARK  118  A    between atoms: _301  and  _304
REMARK  119  A    between atoms: _304  and  _305
REMARK  120  A    between atoms: _308  and  _310
REMARK  121  A    between atoms: _310  and  _311
REMARK  122  A    between atoms: _310  and  _313
REMARK  123  A    between atoms: _313  and  _314
REMARK  124  A    between atoms: _316  and  _318
REMARK  125  A    between atoms: _318  and  _319
REMARK  126  A    between atoms: _318  and  _321
REMARK  127  A    between atoms: _321  and  _322
REMARK  128  A    between atoms: _324  and  _326
REMARK  129  A    between atoms: _326  and  _327
REMARK  130  A    between atoms: _326  and  _329
REMARK  131  A    between atoms: _329  and  _330
REMARK  132  A    between atoms: _330  and  _331
REMARK  133  A    between atoms: _334  and  _336
REMARK  134  A    between atoms: _336  and  _337
REMARK  135  A    between atoms: _336  and  _339
REMARK  136  A    between atoms: _339  and  _340
REMARK  137  A    between atoms: _340  and  _341
REMARK                            x       y       z     vdW  Elec       q    Type
REMARK                         _______ _______ _______ _____ _____    ______ ____
ROOT
ATOM      1  C   GLY A   1      52.459 -46.716  84.516  0.00  0.00    +0.240 C 
ATOM      2  O   GLY A   1      52.725 -45.531  84.295  0.00  0.00    -0.274 OA
ATOM      3  N   LEU A   2      51.449 -47.392  83.893  0.00  0.00    -0.298 N 
ATOM      4  H   LEU A   2      51.310 -48.394  84.135  0.00  0.00    +0.150 HD
ENDROOT
BRANCH   1   5
ATOM      5  CA  GLY A   1      53.269 -47.476  85.546  0.00  0.00    +0.169 C 
BRANCH   5   6
ATOM      6  N   GLY A   1      52.462 -48.335  86.403  0.00  0.00    -0.236 NA
ATOM      7  H   GLY A   1      52.672 -49.354  86.400  0.00  0.00    +0.142 HD
ENDBRANCH   5   6
ENDBRANCH   1   5
BRANCH   3   8
ATOM      8  CA  LEU A   2      50.543 -46.789  82.898  0.00  0.00    +0.137 C 
BRANCH   8   9
ATOM      9  C   LEU A   2      49.675 -45.713  83.548  0.00  0.00    +0.227 C 
ATOM     10  O   LEU A   2      49.464 -44.649  82.959  0.00  0.00    -0.286 OA
ENDBRANCH   8   9
BRANCH   8  11
ATOM     11  CB  LEU A   2      49.638 -47.834  82.213  0.00  0.00    +0.028 C 
BRANCH  11  12
ATOM     12  CG  LEU A   2      50.273 -48.822  81.241  0.00  0.00    +0.002 C 
ATOM     13  CD2 LEU A   2      49.235 -49.797  80.744  0.00  0.00    +0.000 C 
ATOM     14  CD1 LEU A   2      50.894 -48.117  80.042  0.00  0.00    +0.000 C 
ENDBRANCH  11  12
ENDBRANCH   8  11
ENDBRANCH   3   8
TORSDOF 6
REMARK  Name = ../refined-set-2016/4cp5/4cp5_pocket.pdb
REMARK  137 active torsions:
REMARK  status: ('A' for Active; 'I' for Inactive)
REMARK    1  A    between atoms: _1  and  _3
REMARK    2  A    between atoms: _3  and  _4
REMARK    3  A    between atoms: _7  and  _9
REMARK    4  A    between atoms: _9  and  _10
REMARK    5  A    between atoms: _9  and  _12
REMARK    6  A    between atoms: _12  and  _13
REMARK    7  A    between atoms: _13  and  _14
REMARK    8  A    between atoms: _14  and  _15
REMARK    9  A    between atoms: _15  and  _16
REMARK   10  A    between atoms: _20  and  _22
REMARK   11  A    between atoms: _22  and  _23
REMARK   12  A    between atoms: _22  and  _25
REMARK   13  A    between atoms: _25  and  _26
REMARK   14  A    between atoms: _31  and  _33
REMARK   15  A    between atoms: _33  and  _34
REMARK   16  A    between atoms: _33  and  _36
REMARK   17  A    between atoms: _36  and  _37
REMARK   18  A    between atoms: _42  and  _43
REMARK   19  A    between atoms: _45  and  _47
REMARK   20  A    between atoms: _47  and  _48
REMARK   21  A    between atoms: _47  and  _50
REMARK   22  A    between atoms: _51  and  _52
REMARK   23  A    between atoms: _55  and  _57
REMARK   24  A    between atoms: _57  and  _58
REMARK   25  A    between atoms: _57  and  _60
REMARK   26  A    between atoms: _60  and  _61
REMARK   27  A    between atoms: _66  and  _68
REMARK   28  A    between atoms: _68  and  _69
REMARK   29  A    between atoms: _68  and  _71
REMARK   30  A    between atoms: _71  and  _72
REMARK   31  A    between atoms: _72  and  _73
REMARK   32  A    between atoms: _73  and  _74
REMARK   33  A    between atoms: _84  and  _85
REMARK   34  A    between atoms: _90  and  _92
REMARK   35  A    between atoms: _92  and  _93
REMARK   36  A    between atoms: _92  and  _95
REMARK   37  A    between atoms: _95  and  _96
REMARK   38  A    between atoms: _102  and  _104
REMARK   39  A    between atoms: _104  and  _105
REMARK   40  A    between atoms: _104  and  _107
REMARK   41  A    between atoms: _107  and  _108
REMARK   42  A    between atoms: _114  and  _116
REMARK   43  A    between atoms: _116  and  _117
REMARK   44  A    between atoms: _119  and  _121
REMARK   45  A    between atoms: _121  and  _122
REMARK   46  A    between atoms: _121  and  _124
REMARK   47  A    between atoms: _124  and  _125
REMARK   48  A    between atoms: _128  and  _130
REMARK   49  A    between atoms: _130  and  _131
REMARK   50  A    between atoms: _130  and  _133
REMARK   51  A    between atoms: _133  and  _134
REMARK   52  A    between atoms: _137  and  _139
REMARK   53  A    between atoms: _139  and  _140
REMARK   54  A    between atoms: _139  and  _142
REMARK   55  A    between atoms: _142  and  _143
REMARK   56  A    between atoms: _143  and  _144
REMARK   57  A    between atoms: _144  and  _145
REMARK   58  A    between atoms: _154  and  _156
REMARK   59  A    between atoms: _156  and  _157
REMARK   60  A    between atoms: _156  and  _159
REMARK   61  A    between atoms: _159  and  _160
REMARK   62  A    between atoms: _163  and  _165
REMARK   63  A    between atoms: _165  and  _166
REMARK   64  A    between atoms: _168  and  _170
REMARK   65  A    between atoms: _170  and  _171
REMARK   66  A    between atoms: _170  and  _173
REMARK   67  A    between atoms: _176  and  _178
REMARK   68  A    between atoms: _178  and  _179
REMARK   69  A    between atoms: _178  and  _181
REMARK   70  A    between atoms: _181  and  _182
REMARK   71  A    between atoms: _185  and  _187
REMARK   72  A    between atoms: _187  and  _188
REMARK   73  A    between atoms: _187  and  _190
REMARK   74  A    between atoms: _190  and  _191
REMARK   75  A    between atoms: _196  and  _198
REMARK   76  A    between atoms: _198  and  _199
REMARK   77  A    between atoms: _198  and  _201
REMARK   78  A    between atoms: _201  and  _202
REMARK   79  A    between atoms: _202  and  _203
REMARK   80  A    between atoms: _203  and  _204
REMARK   81  A    between atoms: _213  and  _215
REMARK   82  A    between atoms: _215  and  _216
REMARK   83  A    between atoms: _215  and  _218
REMARK   84  A    between atoms: _218  and  _219
REMARK   85  A    between atoms: _222  and  _224
REMARK   86  A    between atoms: _224  and  _225
REMARK   87  A    between atoms: _224  and  _227
REMARK   88  A    between atoms: _230  and  _232
REMARK   89  A    between atoms: _232  and  _233
REMARK   90  A    between atoms: _235  and  _237
REMARK   91  A    between atoms: _237  and  _238
REMARK   92  A    between atoms: _237  and  _240
REMARK   93  A    between atoms: _240  and  _241
REMARK   94  A    between atoms: _241  and  _242
REMARK   95  A    between atoms: _242  and  _243
REMARK   96  A    between atoms: _252  and  _254
REMARK   97  A    between atoms: _254  and  _255
REMARK   98  A    between atoms: _254  and  _257
REMARK   99  A    between atoms: _257  and  _258
REMARK  100  A    between atoms: _263  and  _265
REMARK  101  A    between atoms: _265  and  _266
REMARK  102  A    between atoms: _265  and  _268
REMARK  103  A    between atoms: _268  and  _269
REMARK  104  A    between atoms: _272  and  _274
REMARK  105  A    between atoms: _274  and  _275
REMARK  106  A    between atoms: _274  and  _277
REMARK  107  A    between atoms: _277  and  _278
REMARK  108  A    between atoms: _281  and  _283
REMARK  109  A    between atoms: _283  and  _284
REMARK  110  A    between atoms: _286  and  _288
REMARK  111  A    between atoms: _288  and  _289
REMARK  112  A    between atoms: _291  and  _293
REMARK  113  A    between atoms: _293  and  _294
REMARK  114  A    between atoms: _293  and  _296
REMARK  115  A    between atoms: _296  and  _297
REMARK  116  A    between atoms: _299  and  _301
REMARK  117  A    between atoms: _301  and  _302
REMARK  118  A    between atoms: _301  and  _304
REMARK  119  A    between atoms: _304  and  _305
REMARK  120  A    between atoms: _308  and  _310
REMARK  121  A    between atoms: _310  and  _311
REMARK  122  A    between atoms: _310  and  _313
REMARK  123  A    between atoms: _313  and  _314
REMARK  124  A    between atoms: _316  and  _318
REMARK  125  A    between atoms: _318  and  _319
REMARK  126  A    between atoms: _318  and  _321
REMARK  127  A    between atoms: _321  and  _322
REMARK  128  A    between atoms: _324  and  _326
REMARK  129  A    between atoms: _326  and  _327
REMARK  130  A    between atoms: _326  and  _329
REMARK  131  A    between atoms: _329  and  _330
REMARK  132  A    between atoms: _330  and  _331
REMARK  133  A    between atoms: _334  and  _336
REMARK  134  A    between atoms: _336  and  _337
REMARK  135  A    between atoms: _336  and  _339
REMARK  136  A    between atoms: _339  and  _340
REMARK  137  A    between atoms: _340  and  _341
REMARK                            x       y       z     vdW  Elec       q    Type
REMARK                         _______ _______ _______ _____ _____    ______ ____
ROOT
ATOM      1  CA  ILE A   1      48.875 -40.846  82.103  0.00  0.00    +0.133 C 
ENDROOT
BRANCH   1   2
ATOM      2  N   ILE A   1      49.998 -41.583  82.696  0.00  0.00    -0.239 NA
ATOM      3  H   ILE A   1      49.880 -42.585  82.948  0.00  0.00    +0.142 HD
ENDBRANCH   1   2
BRANCH   1   4
ATOM      4  C   ILE A   1      48.367 -39.724  83.028  0.00  0.00    +0.224 C 
ATOM      5  O   ILE A   1      47.735 -38.801  82.532  0.00  0.00    -0.287 OA
ENDBRANCH   1   4
BRANCH   1   6
ATOM      6  CB  ILE A   1      47.745 -41.783  81.592  0.00  0.00    +0.023 C 
ATOM      7  CG2 ILE A   1      46.874 -42.305  82.723  0.00  0.00    +0.002 C 
BRANCH   6   8
ATOM      8  CG1 ILE A   1      46.918 -41.111  80.457  0.00  0.00    +0.002 C 
ATOM      9  CD1 ILE A   1      46.139 -42.060  79.528  0.00  0.00    +0.000 C 
ENDBRANCH   6   8
ENDBRANCH   1   6
TORSDOF 4
REMARK  Name = ../refined-set-2016/4cp5/4cp5_pocket.pdb
REMARK  137 active torsions:
REMARK  status: ('A' for Active; 'I' for Inactive)
REMARK    1  A    between atoms: _1  and  _3
REMARK    2  A    between atoms: _3  and  _4
REMARK    3  A    between atoms: _7  and  _9
REMARK    4  A    between atoms: _9  and  _10
REMARK    5  A    between atoms: _9  and  _12
REMARK    6  A    between atoms: _12  and  _13
REMARK    7  A    between atoms: _13  and  _14
REMARK    8  A    between atoms: _14  and  _15
REMARK    9  A    between atoms: _15  and  _16
REMARK   10  A    between atoms: _20  and  _22
REMARK   11  A    between atoms: _22  and  _23
REMARK   12  A    between atoms: _22  and  _25
REMARK   13  A    between atoms: _25  and  _26
REMARK   14  A    between atoms: _31  and  _33
REMARK   15  A    between atoms: _33  and  _34
REMARK   16  A    between atoms: _33  and  _36
REMARK   17  A    between atoms: _36  and  _37
REMARK   18  A    between atoms: _42  and  _43
REMARK   19  A    between atoms: _45  and  _47
REMARK   20  A    between atoms: _47  and  _48
REMARK   21  A    between atoms: _47  and  _50
REMARK   22  A    between atoms: _51  and  _52
REMARK   23  A    between atoms: _55  and  _57
REMARK   24  A    between atoms: _57  and  _58
REMARK   25  A    between atoms: _57  and  _60
REMARK   26  A    between atoms: _60  and  _61
REMARK   27  A    between atoms: _66  and  _68
REMARK   28  A    between atoms: _68  and  _69
REMARK   29  A    between atoms: _68  and  _71
REMARK   30  A    between atoms: _71  and  _72
REMARK   31  A    between atoms: _72  and  _73
REMARK   32  A    between atoms: _73  and  _74
REMARK   33  A    between atoms: _84  and  _85
REMARK   34  A    between atoms: _90  and  _92
REMARK   35  A    between atoms: _92  and  _93
REMARK   36  A    between atoms: _92  and  _95
REMARK   37  A    between atoms: _95  and  _96
REMARK   38  A    between atoms: _102  and  _104
REMARK   39  A    between atoms: _104  and  _105
REMARK   40  A    between atoms: _104  and  _107
REMARK   41  A    between atoms: _107  and  _108
REMARK   42  A    between atoms: _114  and  _116
REMARK   43  A    between atoms: _116  and  _117
REMARK   44  A    between atoms: _119  and  _121
REMARK   45  A    between atoms: _121  and  _122
REMARK   46  A    between atoms: _121  and  _124
REMARK   47  A    between atoms: _124  and  _125
REMARK   48  A    between atoms: _128  and  _130
REMARK   49  A    between atoms: _130  and  _131
REMARK   50  A    between atoms: _130  and  _133
REMARK   51  A    between atoms: _133  and  _134
REMARK   52  A    between atoms: _137  and  _139
REMARK   53  A    between atoms: _139  and  _140
REMARK   54  A    between atoms: _139  and  _142
REMARK   55  A    between atoms: _142  and  _143
REMARK   56  A    between atoms: _143  and  _144
REMARK   57  A    between atoms: _144  and  _145
REMARK   58  A    between atoms: _154  and  _156
REMARK   59  A    between atoms: _156  and  _157
REMARK   60  A    between atoms: _156  and  _159
REMARK   61  A    between atoms: _159  and  _160
REMARK   62  A    between atoms: _163  and  _165
REMARK   63  A    between atoms: _165  and  _166
REMARK   64  A    between atoms: _168  and  _170
REMARK   65  A    between atoms: _170  and  _171
REMARK   66  A    between atoms: _170  and  _173
REMARK   67  A    between atoms: _176  and  _178
REMARK   68  A    between atoms: _178  and  _179
REMARK   69  A    between atoms: _178  and  _181
REMARK   70  A    between atoms: _181  and  _182
REMARK   71  A    between atoms: _185  and  _187
REMARK   72  A    between atoms: _187  and  _188
REMARK   73  A    between atoms: _187  and  _190
REMARK   74  A    between atoms: _190  and  _191
REMARK   75  A    between atoms: _196  and  _198
REMARK   76  A    between atoms: _198  and  _199
REMARK   77  A    between atoms: _198  and  _201
REMARK   78  A    between atoms: _201  and  _202
REMARK   79  A    between atoms: _202  and  _203
REMARK   80  A    between atoms: _203  and  _204
REMARK   81  A    between atoms: _213  and  _215
REMARK   82  A    between atoms: _215  and  _216
REMARK   83  A    between atoms: _215  and  _218
REMARK   84  A    between atoms: _218  and  _219
REMARK   85  A    between atoms: _222  and  _224
REMARK   86  A    between atoms: _224  and  _225
REMARK   87  A    between atoms: _224  and  _227
REMARK   88  A    between atoms: _230  and  _232
REMARK   89  A    between atoms: _232  and  _233
REMARK   90  A    between atoms: _235  and  _237
REMARK   91  A    between atoms: _237  and  _238
REMARK   92  A    between atoms: _237  and  _240
REMARK   93  A    between atoms: _240  and  _241
REMARK   94  A    between atoms: _241  and  _242
REMARK   95  A    between atoms: _242  and  _243
REMARK   96  A    between atoms: _252  and  _254
REMARK   97  A    between atoms: _254  and  _255
REMARK   98  A    between atoms: _254  and  _257
REMARK   99  A    between atoms: _257  and  _258
REMARK  100  A    between atoms: _263  and  _265
REMARK  101  A    between atoms: _265  and  _266
REMARK  102  A    between atoms: _265  and  _268
REMARK  103  A    between atoms: _268  and  _269
REMARK  104  A    between atoms: _272  and  _274
REMARK  105  A    between atoms: _274  and  _275
REMARK  106  A    between atoms: _274  and  _277
REMARK  107  A    between atoms: _277  and  _278
REMARK  108  A    between atoms: _281  and  _283
REMARK  109  A    between atoms: _283  and  _284
REMARK  110  A    between atoms: _286  and  _288
REMARK  111  A    between atoms: _288  and  _289
REMARK  112  A    between atoms: _291  and  _293
REMARK  113  A    between atoms: _293  and  _294
REMARK  114  A    between atoms: _293  and  _296
REMARK  115  A    between atoms: _296  and  _297
REMARK  116  A    between atoms: _299  and  _301
REMARK  117  A    between atoms: _301  and  _302
REMARK  118  A    between atoms: _301  and  _304
REMARK  119  A    between atoms: _304  and  _305
REMARK  120  A    between atoms: _308  and  _310
REMARK  121  A    between atoms: _310  and  _311
REMARK  122  A    between atoms: _310  and  _313
REMARK  123  A    between atoms: _313  and  _314
REMARK  124  A    between atoms: _316  and  _318
REMARK  125  A    between atoms: _318  and  _319
REMARK  126  A    between atoms: _318  and  _321
REMARK  127  A    between atoms: _321  and  _322
REMARK  128  A    between atoms: _324  and  _326
REMARK  129  A    between atoms: _326  and  _327
REMARK  130  A    between atoms: _326  and  _329
REMARK  131  A    between atoms: _329  and  _330
REMARK  132  A    between atoms: _330  and  _331
REMARK  133  A    between atoms: _334  and  _336
REMARK  134  A    between atoms: _336  and  _337
REMARK  135  A    between atoms: _336  and  _339
REMARK  136  A    between atoms: _339  and  _340
REMARK  137  A    between atoms: _340  and  _341
REMARK                            x       y       z     vdW  Elec       q    Type
REMARK                         _______ _______ _______ _____ _____    ______ ____
ROOT
ATOM      1  NE  ARG A   1      44.475 -50.349  68.404  0.00  0.00    -0.265 N 
ATOM      2  CZ  ARG A   1      44.799 -50.750  69.630  0.00  0.00    +0.342 C 
ATOM      3  NH2 ARG A   1      44.412 -50.051  70.692  0.00  0.00    -0.292 N 
ATOM      4 HH21 ARG A   1      44.669 -50.371  71.647  0.00  0.00    +0.255 HD
ATOM      5 HH22 ARG A   1      43.852 -49.184  70.568  0.00  0.00    +0.255 HD
ATOM      6  NH1 ARG A   1      45.490 -51.865  69.806  0.00  0.00    -0.292 N 
ATOM      7 HH11 ARG A   1      45.741 -52.175  70.766  0.00  0.00    +0.255 HD
ATOM      8 HH12 ARG A   1      45.782 -52.431  68.984  0.00  0.00    +0.255 HD
ATOM      9  HE  ARG A   1      44.766 -50.951  67.607  0.00  0.00    +0.259 HD
ENDROOT
BRANCH   1  10
ATOM     10  CD  ARG A   1      43.738 -49.121  68.093  0.00  0.00    +0.174 C 
BRANCH  10  11
ATOM     11  CG  ARG A   1      43.149 -49.138  66.687  0.00  0.00    +0.045 C 
BRANCH  11  12
ATOM     12  CB  ARG A   1      44.207 -49.139  65.577  0.00  0.00    +0.029 C 
BRANCH  12  13
ATOM     13  CA  ARG A   1      44.844 -47.751  65.258  0.00  0.00    +0.133 C 
BRANCH  13  14
ATOM     14  N   ARG A   1      43.833 -46.809  64.737  0.00  0.00    -0.239 NA
ATOM     15  H   ARG A   1      42.878 -47.190  64.584  0.00  0.00    +0.142 HD
ENDBRANCH  13  14
BRANCH  13  16
ATOM     16  C   ARG A   1      45.955 -47.942  64.234  0.00  0.00    +0.224 C 
ATOM     17  O   ARG A   1      47.127 -47.926  64.604  0.00  0.00    -0.287 OA
ENDBRANCH  13  16
ENDBRANCH  12  13
ENDBRANCH  11  12
ENDBRANCH  10  11
ENDBRANCH   1  10
TORSDOF 6
REMARK  Name = ../refined-set-2016/4cp5/4cp5_pocket.pdb
REMARK  137 active torsions:
REMARK  status: ('A' for Active; 'I' for Inactive)
REMARK    1  A    between atoms: _1  and  _3
REMARK    2  A    between atoms: _3  and  _4
REMARK    3  A    between atoms: _7  and  _9
REMARK    4  A    between atoms: _9  and  _10
REMARK    5  A    between atoms: _9  and  _12
REMARK    6  A    between atoms: _12  and  _13
REMARK    7  A    between atoms: _13  and  _14
REMARK    8  A    between atoms: _14  and  _15
REMARK    9  A    between atoms: _15  and  _16
REMARK   10  A    between atoms: _20  and  _22
REMARK   11  A    between atoms: _22  and  _23
REMARK   12  A    between atoms: _22  and  _25
REMARK   13  A    between atoms: _25  and  _26
REMARK   14  A    between atoms: _31  and  _33
REMARK   15  A    between atoms: _33  and  _34
REMARK   16  A    between atoms: _33  and  _36
REMARK   17  A    between atoms: _36  and  _37
REMARK   18  A    between atoms: _42  and  _43
REMARK   19  A    between atoms: _45  and  _47
REMARK   20  A    between atoms: _47  and  _48
REMARK   21  A    between atoms: _47  and  _50
REMARK   22  A    between atoms: _51  and  _52
REMARK   23  A    between atoms: _55  and  _57
REMARK   24  A    between atoms: _57  and  _58
REMARK   25  A    between atoms: _57  and  _60
REMARK   26  A    between atoms: _60  and  _61
REMARK   27  A    between atoms: _66  and  _68
REMARK   28  A    between atoms: _68  and  _69
REMARK   29  A    between atoms: _68  and  _71
REMARK   30  A    between atoms: _71  and  _72
REMARK   31  A    between atoms: _72  and  _73
REMARK   32  A    between atoms: _73  and  _74
REMARK   33  A    between atoms: _84  and  _85
REMARK   34  A    between atoms: _90  and  _92
REMARK   35  A    between atoms: _92  and  _93
REMARK   36  A    between atoms: _92  and  _95
REMARK   37  A    between atoms: _95  and  _96
REMARK   38  A    between atoms: _102  and  _104
REMARK   39  A    between atoms: _104  and  _105
REMARK   40  A    between atoms: _104  and  _107
REMARK   41  A    between atoms: _107  and  _108
REMARK   42  A    between atoms: _114  and  _116
REMARK   43  A    between atoms: _116  and  _117
REMARK   44  A    between atoms: _119  and  _121
REMARK   45  A    between atoms: _121  and  _122
REMARK   46  A    between atoms: _121  and  _124
REMARK   47  A    between atoms: _124  and  _125
REMARK   48  A    between atoms: _128  and  _130
REMARK   49  A    between atoms: _130  and  _131
REMARK   50  A    between atoms: _130  and  _133
REMARK   51  A    between atoms: _133  and  _134
REMARK   52  A    between atoms: _137  and  _139
REMARK   53  A    between atoms: _139  and  _140
REMARK   54  A    between atoms: _139  and  _142
REMARK   55  A    between atoms: _142  and  _143
REMARK   56  A    between atoms: _143  and  _144
REMARK   57  A    between atoms: _144  and  _145
REMARK   58  A    between atoms: _154  and  _156
REMARK   59  A    between atoms: _156  and  _157
REMARK   60  A    between atoms: _156  and  _159
REMARK   61  A    between atoms: _159  and  _160
REMARK   62  A    between atoms: _163  and  _165
REMARK   63  A    between atoms: _165  and  _166
REMARK   64  A    between atoms: _168  and  _170
REMARK   65  A    between atoms: _170  and  _171
REMARK   66  A    between atoms: _170  and  _173
REMARK   67  A    between atoms: _176  and  _178
REMARK   68  A    between atoms: _178  and  _179
REMARK   69  A    between atoms: _178  and  _181
REMARK   70  A    between atoms: _181  and  _182
REMARK   71  A    between atoms: _185  and  _187
REMARK   72  A    between atoms: _187  and  _188
REMARK   73  A    between atoms: _187  and  _190
REMARK   74  A    between atoms: _190  and  _191
REMARK   75  A    between atoms: _196  and  _198
REMARK   76  A    between atoms: _198  and  _199
REMARK   77  A    between atoms: _198  and  _201
REMARK   78  A    between atoms: _201  and  _202
REMARK   79  A    between atoms: _202  and  _203
REMARK   80  A    between atoms: _203  and  _204
REMARK   81  A    between atoms: _213  and  _215
REMARK   82  A    between atoms: _215  and  _216
REMARK   83  A    between atoms: _215  and  _218
REMARK   84  A    between atoms: _218  and  _219
REMARK   85  A    between atoms: _222  and  _224
REMARK   86  A    between atoms: _224  and  _225
REMARK   87  A    between atoms: _224  and  _227
REMARK   88  A    between atoms: _230  and  _232
REMARK   89  A    between atoms: _232  and  _233
REMARK   90  A    between atoms: _235  and  _237
REMARK   91  A    between atoms: _237  and  _238
REMARK   92  A    between atoms: _237  and  _240
REMARK   93  A    between atoms: _240  and  _241
REMARK   94  A    between atoms: _241  and  _242
REMARK   95  A    between atoms: _242  and  _243
REMARK   96  A    between atoms: _252  and  _254
REMARK   97  A    between atoms: _254  and  _255
REMARK   98  A    between atoms: _254  and  _257
REMARK   99  A    between atoms: _257  and  _258
REMARK  100  A    between atoms: _263  and  _265
REMARK  101  A    between atoms: _265  and  _266
REMARK  102  A    between atoms: _265  and  _268
REMARK  103  A    between atoms: _268  and  _269
REMARK  104  A    between atoms: _272  and  _274
REMARK  105  A    between atoms: _274  and  _275
REMARK  106  A    between atoms: _274  and  _277
REMARK  107  A    between atoms: _277  and  _278
REMARK  108  A    between atoms: _281  and  _283
REMARK  109  A    between atoms: _283  and  _284
REMARK  110  A    between atoms: _286  and  _288
REMARK  111  A    between atoms: _288  and  _289
REMARK  112  A    between atoms: _291  and  _293
REMARK  113  A    between atoms: _293  and  _294
REMARK  114  A    between atoms: _293  and  _296
REMARK  115  A    between atoms: _296  and  _297
REMARK  116  A    between atoms: _299  and  _301
REMARK  117  A    between atoms: _301  and  _302
REMARK  118  A    between atoms: _301  and  _304
REMARK  119  A    between atoms: _304  and  _305
REMARK  120  A    between atoms: _308  and  _310
REMARK  121  A    between atoms: _310  and  _311
REMARK  122  A    between atoms: _310  and  _313
REMARK  123  A    between atoms: _313  and  _314
REMARK  124  A    between atoms: _316  and  _318
REMARK  125  A    between atoms: _318  and  _319
REMARK  126  A    between atoms: _318  and  _321
REMARK  127  A    between atoms: _321  and  _322
REMARK  128  A    between atoms: _324  and  _326
REMARK  129  A    between atoms: _326  and  _327
REMARK  130  A    between atoms: _326  and  _329
REMARK  131  A    between atoms: _329  and  _330
REMARK  132  A    between atoms: _330  and  _331
REMARK  133  A    between atoms: _334  and  _336
REMARK  134  A    between atoms: _336  and  _337
REMARK  135  A    between atoms: _336  and  _339
REMARK  136  A    between atoms: _339  and  _340
REMARK  137  A    between atoms: _340  and  _341
REMARK                            x       y       z     vdW  Elec       q    Type
REMARK                         _______ _______ _______ _____ _____    ______ ____
ROOT
ATOM      1  C   VAL A   3      52.453 -50.400  68.102  0.00  0.00    +0.241 C 
ATOM      2  N   THR A   4      52.314 -51.298  69.085  0.00  0.00    -0.295 N 
ATOM      3  H   THR A   4      51.891 -52.220  68.853  0.00  0.00    +0.150 HD
ATOM      4  O   VAL A   3      52.932 -49.284  68.286  0.00  0.00    -0.273 OA
ENDROOT
BRANCH   2   5
ATOM      5  CA  THR A   4      52.728 -51.051  70.478  0.00  0.00    +0.176 C 
BRANCH   5   6
ATOM      6  C   THR A   4      54.141 -50.474  70.587  0.00  0.00    +0.243 C 
ATOM      7  O   THR A   4      54.341 -49.483  71.289  0.00  0.00    -0.273 OA
ATOM      8  N   ASN A   5      55.107 -51.096  69.903  0.00  0.00    -0.298 N 
ATOM      9  H   ASN A   5      54.862 -51.944  69.353  0.00  0.00    +0.150 HD
BRANCH   8  10
ATOM     10  CA  ASN A   5      56.492 -50.634  69.896  0.00  0.00    +0.146 C 
BRANCH  10  11
ATOM     11  C   ASN A   5      56.652 -49.613  68.755  0.00  0.00    +0.227 C 
ATOM     12  O   ASN A   5      56.518 -49.969  67.570  0.00  0.00    -0.286 OA
ENDBRANCH  10  11
BRANCH  10  13
ATOM     13  CB  ASN A   5      57.481 -51.804  69.723  0.00  0.00    +0.112 C 
BRANCH  13  14
ATOM     14  CG  ASN A   5      58.950 -51.418  69.726  0.00  0.00    +0.222 C 
ATOM     15  OD1 ASN A   5      59.345 -50.309  70.092  0.00  0.00    -0.275 OA
ATOM     16  ND2 ASN A   5      59.797 -52.345  69.317  0.00  0.00    -0.329 N 
ATOM     17 HD21 ASN A   5      60.818 -52.146  69.300  0.00  0.00    +0.145 HD
ATOM     18 HD22 ASN A   5      59.443 -53.274  69.012  0.00  0.00    +0.145 HD
ENDBRANCH  13  14
ENDBRANCH  10  13
ENDBRANCH   8  10
ENDBRANCH   5   6
BRANCH   5  19
ATOM     19  CB  THR A   4      52.553 -52.323  71.332  0.00  0.00    +0.137 C 
ATOM     20  CG2 THR A   4      52.895 -52.087  72.808  0.00  0.00    +0.034 C 
BRANCH  19  21
ATOM     21  OG1 THR A   4      51.205 -52.788  71.209  0.00  0.00    -0.382 OA
ATOM     22  HG1 THR A   4      50.584 -52.085  71.527  0.00  0.00    +0.210 HD
ENDBRANCH  19  21
ENDBRANCH   5  19
ENDBRANCH   2   5
BRANCH   1  23
ATOM     23  CA  VAL A   3      51.964 -50.773  66.700  0.00  0.00    +0.149 C 
BRANCH  23  25
ATOM     24  C   GLY A   2      50.899 -49.034  65.311  0.00  0.00    +0.243 C 
ATOM     25  N   VAL A   3      52.014 -49.612  65.789  0.00  0.00    -0.297 N 
ATOM     26  H   VAL A   3      52.940 -49.230  65.509  0.00  0.00    +0.150 HD
ATOM     27  O   GLY A   2      49.767 -49.418  65.624  0.00  0.00    -0.273 OA
BRANCH  24  28
ATOM     28  CA  GLY A   2      51.058 -47.865  64.355  0.00  0.00    +0.176 C 
BRANCH  28  31
ATOM     29  C   ILE A   1      50.163 -45.677  65.000  0.00  0.00    +0.238 C 
ATOM     30  O   ILE A   1      51.276 -45.223  65.275  0.00  0.00    -0.274 OA
ATOM     31  N   GLY A   2      49.973 -46.906  64.528  0.00  0.00    -0.296 N 
ATOM     32  H   GLY A   2      49.008 -47.196  64.271  0.00  0.00    +0.150 HD
BRANCH  29  33
ATOM     33  CA  ILE A   1      48.900 -44.812  65.186  0.00  0.00    +0.145 C 
BRANCH  33  34
ATOM     34  CB  ILE A   1      48.097 -45.179  66.479  0.00  0.00    +0.025 C 
ATOM     35  CG2 ILE A   1      49.012 -45.454  67.672  0.00  0.00    +0.002 C 
BRANCH  34  36
ATOM     36  CG1 ILE A   1      47.073 -44.075  66.813  0.00  0.00    +0.002 C 
ATOM     37  CD1 ILE A   1      46.048 -44.434  67.866  0.00  0.00    +0.000 C 
ENDBRANCH  34  36
ENDBRANCH  33  34
BRANCH  33  38
ATOM     38  N   ILE A   1      48.032 -44.891  64.002  0.00  0.00    -0.238 NA
ATOM     39  H   ILE A   1      47.169 -45.467  64.079  0.00  0.00    +0.142 HD
ENDBRANCH  33  38
ENDBRANCH  29  33
ENDBRANCH  28  31
ENDBRANCH  24  28
ENDBRANCH  23  25
BRANCH  23  40
ATOM     40  CB  VAL A   3      52.661 -52.021  66.124  0.00  0.00    +0.027 C 
ATOM     41  CG2 VAL A   3      54.140 -51.788  65.863  0.00  0.00    +0.002 C 
ATOM     42  CG1 VAL A   3      51.966 -52.477  64.852  0.00  0.00    +0.002 C 
ENDBRANCH  23  40
ENDBRANCH   1  23
TORSDOF 17
REMARK  Name = ../refined-set-2016/4cp5/4cp5_pocket.pdb
REMARK  137 active torsions:
REMARK  status: ('A' for Active; 'I' for Inactive)
REMARK    1  A    between atoms: _1  and  _3
REMARK    2  A    between atoms: _3  and  _4
REMARK    3  A    between atoms: _7  and  _9
REMARK    4  A    between atoms: _9  and  _10
REMARK    5  A    between atoms: _9  and  _12
REMARK    6  A    between atoms: _12  and  _13
REMARK    7  A    between atoms: _13  and  _14
REMARK    8  A    between atoms: _14  and  _15
REMARK    9  A    between atoms: _15  and  _16
REMARK   10  A    between atoms: _20  and  _22
REMARK   11  A    between atoms: _22  and  _23
REMARK   12  A    between atoms: _22  and  _25
REMARK   13  A    between atoms: _25  and  _26
REMARK   14  A    between atoms: _31  and  _33
REMARK   15  A    between atoms: _33  and  _34
REMARK   16  A    between atoms: _33  and  _36
REMARK   17  A    between atoms: _36  and  _37
REMARK   18  A    between atoms: _42  and  _43
REMARK   19  A    between atoms: _45  and  _47
REMARK   20  A    between atoms: _47  and  _48
REMARK   21  A    between atoms: _47  and  _50
REMARK   22  A    between atoms: _51  and  _52
REMARK   23  A    between atoms: _55  and  _57
REMARK   24  A    between atoms: _57  and  _58
REMARK   25  A    between atoms: _57  and  _60
REMARK   26  A    between atoms: _60  and  _61
REMARK   27  A    between atoms: _66  and  _68
REMARK   28  A    between atoms: _68  and  _69
REMARK   29  A    between atoms: _68  and  _71
REMARK   30  A    between atoms: _71  and  _72
REMARK   31  A    between atoms: _72  and  _73
REMARK   32  A    between atoms: _73  and  _74
REMARK   33  A    between atoms: _84  and  _85
REMARK   34  A    between atoms: _90  and  _92
REMARK   35  A    between atoms: _92  and  _93
REMARK   36  A    between atoms: _92  and  _95
REMARK   37  A    between atoms: _95  and  _96
REMARK   38  A    between atoms: _102  and  _104
REMARK   39  A    between atoms: _104  and  _105
REMARK   40  A    between atoms: _104  and  _107
REMARK   41  A    between atoms: _107  and  _108
REMARK   42  A    between atoms: _114  and  _116
REMARK   43  A    between atoms: _116  and  _117
REMARK   44  A    between atoms: _119  and  _121
REMARK   45  A    between atoms: _121  and  _122
REMARK   46  A    between atoms: _121  and  _124
REMARK   47  A    between atoms: _124  and  _125
REMARK   48  A    between atoms: _128  and  _130
REMARK   49  A    between atoms: _130  and  _131
REMARK   50  A    between atoms: _130  and  _133
REMARK   51  A    between atoms: _133  and  _134
REMARK   52  A    between atoms: _137  and  _139
REMARK   53  A    between atoms: _139  and  _140
REMARK   54  A    between atoms: _139  and  _142
REMARK   55  A    between atoms: _142  and  _143
REMARK   56  A    between atoms: _143  and  _144
REMARK   57  A    between atoms: _144  and  _145
REMARK   58  A    between atoms: _154  and  _156
REMARK   59  A    between atoms: _156  and  _157
REMARK   60  A    between atoms: _156  and  _159
REMARK   61  A    between atoms: _159  and  _160
REMARK   62  A    between atoms: _163  and  _165
REMARK   63  A    between atoms: _165  and  _166
REMARK   64  A    between atoms: _168  and  _170
REMARK   65  A    between atoms: _170  and  _171
REMARK   66  A    between atoms: _170  and  _173
REMARK   67  A    between atoms: _176  and  _178
REMARK   68  A    between atoms: _178  and  _179
REMARK   69  A    between atoms: _178  and  _181
REMARK   70  A    between atoms: _181  and  _182
REMARK   71  A    between atoms: _185  and  _187
REMARK   72  A    between atoms: _187  and  _188
REMARK   73  A    between atoms: _187  and  _190
REMARK   74  A    between atoms: _190  and  _191
REMARK   75  A    between atoms: _196  and  _198
REMARK   76  A    between atoms: _198  and  _199
REMARK   77  A    between atoms: _198  and  _201
REMARK   78  A    between atoms: _201  and  _202
REMARK   79  A    between atoms: _202  and  _203
REMARK   80  A    between atoms: _203  and  _204
REMARK   81  A    between atoms: _213  and  _215
REMARK   82  A    between atoms: _215  and  _216
REMARK   83  A    between atoms: _215  and  _218
REMARK   84  A    between atoms: _218  and  _219
REMARK   85  A    between atoms: _222  and  _224
REMARK   86  A    between atoms: _224  and  _225
REMARK   87  A    between atoms: _224  and  _227
REMARK   88  A    between atoms: _230  and  _232
REMARK   89  A    between atoms: _232  and  _233
REMARK   90  A    between atoms: _235  and  _237
REMARK   91  A    between atoms: _237  and  _238
REMARK   92  A    between atoms: _237  and  _240
REMARK   93  A    between atoms: _240  and  _241
REMARK   94  A    between atoms: _241  and  _242
REMARK   95  A    between atoms: _242  and  _243
REMARK   96  A    between atoms: _252  and  _254
REMARK   97  A    between atoms: _254  and  _255
REMARK   98  A    between atoms: _254  and  _257
REMARK   99  A    between atoms: _257  and  _258
REMARK  100  A    between atoms: _263  and  _265
REMARK  101  A    between atoms: _265  and  _266
REMARK  102  A    between atoms: _265  and  _268
REMARK  103  A    between atoms: _268  and  _269
REMARK  104  A    between atoms: _272  and  _274
REMARK  105  A    between atoms: _274  and  _275
REMARK  106  A    between atoms: _274  and  _277
REMARK  107  A    between atoms: _277  and  _278
REMARK  108  A    between atoms: _281  and  _283
REMARK  109  A    between atoms: _283  and  _284
REMARK  110  A    between atoms: _286  and  _288
REMARK  111  A    between atoms: _288  and  _289
REMARK  112  A    between atoms: _291  and  _293
REMARK  113  A    between atoms: _293  and  _294
REMARK  114  A    between atoms: _293  and  _296
REMARK  115  A    between atoms: _296  and  _297
REMARK  116  A    between atoms: _299  and  _301
REMARK  117  A    between atoms: _301  and  _302
REMARK  118  A    between atoms: _301  and  _304
REMARK  119  A    between atoms: _304  and  _305
REMARK  120  A    between atoms: _308  and  _310
REMARK  121  A    between atoms: _310  and  _311
REMARK  122  A    between atoms: _310  and  _313
REMARK  123  A    between atoms: _313  and  _314
REMARK  124  A    between atoms: _316  and  _318
REMARK  125  A    between atoms: _318  and  _319
REMARK  126  A    between atoms: _318  and  _321
REMARK  127  A    between atoms: _321  and  _322
REMARK  128  A    between atoms: _324  and  _326
REMARK  129  A    between atoms: _326  and  _327
REMARK  130  A    between atoms: _326  and  _329
REMARK  131  A    between atoms: _329  and  _330
REMARK  132  A    between atoms: _330  and  _331
REMARK  133  A    between atoms: _334  and  _336
REMARK  134  A    between atoms: _336  and  _337
REMARK  135  A    between atoms: _336  and  _339
REMARK  136  A    between atoms: _339  and  _340
REMARK  137  A    between atoms: _340  and  _341
REMARK                            x       y       z     vdW  Elec       q    Type
REMARK                         _______ _______ _______ _____ _____    ______ ____
ROOT
ATOM      1  NE  ARG A   1      51.542 -45.950  69.943  0.00  0.00    -0.265 N 
ATOM      2  CZ  ARG A   1      50.766 -46.923  70.414  0.00  0.00    +0.342 C 
ATOM      3  NH2 ARG A   1      49.902 -46.680  71.388  0.00  0.00    -0.292 N 
ATOM      4 HH21 ARG A   1      49.827 -45.724  71.790  0.00  0.00    +0.255 HD
ATOM      5 HH22 ARG A   1      49.299 -47.445  71.751  0.00  0.00    +0.255 HD
ATOM      6  NH1 ARG A   1      50.819 -48.129  69.891  0.00  0.00    -0.292 N 
ATOM      7 HH11 ARG A   1      50.210 -48.885  70.264  0.00  0.00    +0.255 HD
ATOM      8 HH12 ARG A   1      51.470 -48.327  69.105  0.00  0.00    +0.255 HD
ATOM      9  HE  ARG A   1      51.454 -45.004  70.366  0.00  0.00    +0.259 HD
ENDROOT
BRANCH   1  10
ATOM     10  CD  ARG A   1      52.512 -46.135  68.864  0.00  0.00    +0.174 C 
BRANCH  10  11
ATOM     11  CG  ARG A   1      52.940 -44.842  68.230  0.00  0.00    +0.045 C 
BRANCH  11  12
ATOM     12  CB  ARG A   1      54.023 -45.116  67.174  0.00  0.00    +0.029 C 
BRANCH  12  13
ATOM     13  CA  ARG A   1      54.495 -43.867  66.402  0.00  0.00    +0.133 C 
BRANCH  13  14
ATOM     14  N   ARG A   1      53.386 -43.268  65.618  0.00  0.00    -0.239 NA
ATOM     15  H   ARG A   1      52.528 -43.831  65.448  0.00  0.00    +0.142 HD
ENDBRANCH  13  14
BRANCH  13  16
ATOM     16  C   ARG A   1      55.708 -44.160  65.564  0.00  0.00    +0.224 C 
ATOM     17  O   ARG A   1      56.825 -43.982  66.028  0.00  0.00    -0.287 OA
ENDBRANCH  13  16
ENDBRANCH  12  13
ENDBRANCH  11  12
ENDBRANCH  10  11
ENDBRANCH   1  10
TORSDOF 6
REMARK  Name = ../refined-set-2016/4cp5/4cp5_pocket.pdb
REMARK  137 active torsions:
REMARK  status: ('A' for Active; 'I' for Inactive)
REMARK    1  A    between atoms: _1  and  _3
REMARK    2  A    between atoms: _3  and  _4
REMARK    3  A    between atoms: _7  and  _9
REMARK    4  A    between atoms: _9  and  _10
REMARK    5  A    between atoms: _9  and  _12
REMARK    6  A    between atoms: _12  and  _13
REMARK    7  A    between atoms: _13  and  _14
REMARK    8  A    between atoms: _14  and  _15
REMARK    9  A    between atoms: _15  and  _16
REMARK   10  A    between atoms: _20  and  _22
REMARK   11  A    between atoms: _22  and  _23
REMARK   12  A    between atoms: _22  and  _25
REMARK   13  A    between atoms: _25  and  _26
REMARK   14  A    between atoms: _31  and  _33
REMARK   15  A    between atoms: _33  and  _34
REMARK   16  A    between atoms: _33  and  _36
REMARK   17  A    between atoms: _36  and  _37
REMARK   18  A    between atoms: _42  and  _43
REMARK   19  A    between atoms: _45  and  _47
REMARK   20  A    between atoms: _47  and  _48
REMARK   21  A    between atoms: _47  and  _50
REMARK   22  A    between atoms: _51  and  _52
REMARK   23  A    between atoms: _55  and  _57
REMARK   24  A    between atoms: _57  and  _58
REMARK   25  A    between atoms: _57  and  _60
REMARK   26  A    between atoms: _60  and  _61
REMARK   27  A    between atoms: _66  and  _68
REMARK   28  A    between atoms: _68  and  _69
REMARK   29  A    between atoms: _68  and  _71
REMARK   30  A    between atoms: _71  and  _72
REMARK   31  A    between atoms: _72  and  _73
REMARK   32  A    between atoms: _73  and  _74
REMARK   33  A    between atoms: _84  and  _85
REMARK   34  A    between atoms: _90  and  _92
REMARK   35  A    between atoms: _92  and  _93
REMARK   36  A    between atoms: _92  and  _95
REMARK   37  A    between atoms: _95  and  _96
REMARK   38  A    between atoms: _102  and  _104
REMARK   39  A    between atoms: _104  and  _105
REMARK   40  A    between atoms: _104  and  _107
REMARK   41  A    between atoms: _107  and  _108
REMARK   42  A    between atoms: _114  and  _116
REMARK   43  A    between atoms: _116  and  _117
REMARK   44  A    between atoms: _119  and  _121
REMARK   45  A    between atoms: _121  and  _122
REMARK   46  A    between atoms: _121  and  _124
REMARK   47  A    between atoms: _124  and  _125
REMARK   48  A    between atoms: _128  and  _130
REMARK   49  A    between atoms: _130  and  _131
REMARK   50  A    between atoms: _130  and  _133
REMARK   51  A    between atoms: _133  and  _134
REMARK   52  A    between atoms: _137  and  _139
REMARK   53  A    between atoms: _139  and  _140
REMARK   54  A    between atoms: _139  and  _142
REMARK   55  A    between atoms: _142  and  _143
REMARK   56  A    between atoms: _143  and  _144
REMARK   57  A    between atoms: _144  and  _145
REMARK   58  A    between atoms: _154  and  _156
REMARK   59  A    between atoms: _156  and  _157
REMARK   60  A    between atoms: _156  and  _159
REMARK   61  A    between atoms: _159  and  _160
REMARK   62  A    between atoms: _163  and  _165
REMARK   63  A    between atoms: _165  and  _166
REMARK   64  A    between atoms: _168  and  _170
REMARK   65  A    between atoms: _170  and  _171
REMARK   66  A    between atoms: _170  and  _173
REMARK   67  A    between atoms: _176  and  _178
REMARK   68  A    between atoms: _178  and  _179
REMARK   69  A    between atoms: _178  and  _181
REMARK   70  A    between atoms: _181  and  _182
REMARK   71  A    between atoms: _185  and  _187
REMARK   72  A    between atoms: _187  and  _188
REMARK   73  A    between atoms: _187  and  _190
REMARK   74  A    between atoms: _190  and  _191
REMARK   75  A    between atoms: _196  and  _198
REMARK   76  A    between atoms: _198  and  _199
REMARK   77  A    between atoms: _198  and  _201
REMARK   78  A    between atoms: _201  and  _202
REMARK   79  A    between atoms: _202  and  _203
REMARK   80  A    between atoms: _203  and  _204
REMARK   81  A    between atoms: _213  and  _215
REMARK   82  A    between atoms: _215  and  _216
REMARK   83  A    between atoms: _215  and  _218
REMARK   84  A    between atoms: _218  and  _219
REMARK   85  A    between atoms: _222  and  _224
REMARK   86  A    between atoms: _224  and  _225
REMARK   87  A    between atoms: _224  and  _227
REMARK   88  A    between atoms: _230  and  _232
REMARK   89  A    between atoms: _232  and  _233
REMARK   90  A    between atoms: _235  and  _237
REMARK   91  A    between atoms: _237  and  _238
REMARK   92  A    between atoms: _237  and  _240
REMARK   93  A    between atoms: _240  and  _241
REMARK   94  A    between atoms: _241  and  _242
REMARK   95  A    between atoms: _242  and  _243
REMARK   96  A    between atoms: _252  and  _254
REMARK   97  A    between atoms: _254  and  _255
REMARK   98  A    between atoms: _254  and  _257
REMARK   99  A    between atoms: _257  and  _258
REMARK  100  A    between atoms: _263  and  _265
REMARK  101  A    between atoms: _265  and  _266
REMARK  102  A    between atoms: _265  and  _268
REMARK  103  A    between atoms: _268  and  _269
REMARK  104  A    between atoms: _272  and  _274
REMARK  105  A    between atoms: _274  and  _275
REMARK  106  A    between atoms: _274  and  _277
REMARK  107  A    between atoms: _277  and  _278
REMARK  108  A    between atoms: _281  and  _283
REMARK  109  A    between atoms: _283  and  _284
REMARK  110  A    between atoms: _286  and  _288
REMARK  111  A    between atoms: _288  and  _289
REMARK  112  A    between atoms: _291  and  _293
REMARK  113  A    between atoms: _293  and  _294
REMARK  114  A    between atoms: _293  and  _296
REMARK  115  A    between atoms: _296  and  _297
REMARK  116  A    between atoms: _299  and  _301
REMARK  117  A    between atoms: _301  and  _302
REMARK  118  A    between atoms: _301  and  _304
REMARK  119  A    between atoms: _304  and  _305
REMARK  120  A    between atoms: _308  and  _310
REMARK  121  A    between atoms: _310  and  _311
REMARK  122  A    between atoms: _310  and  _313
REMARK  123  A    between atoms: _313  and  _314
REMARK  124  A    between atoms: _316  and  _318
REMARK  125  A    between atoms: _318  and  _319
REMARK  126  A    between atoms: _318  and  _321
REMARK  127  A    between atoms: _321  and  _322
REMARK  128  A    between atoms: _324  and  _326
REMARK  129  A    between atoms: _326  and  _327
REMARK  130  A    between atoms: _326  and  _329
REMARK  131  A    between atoms: _329  and  _330
REMARK  132  A    between atoms: _330  and  _331
REMARK  133  A    between atoms: _334  and  _336
REMARK  134  A    between atoms: _336  and  _337
REMARK  135  A    between atoms: _336  and  _339
REMARK  136  A    between atoms: _339  and  _340
REMARK  137  A    between atoms: _340  and  _341
REMARK                            x       y       z     vdW  Elec       q    Type
REMARK                         _______ _______ _______ _____ _____    ______ ____
ROOT
ATOM      1  C   ASN A   5      53.237 -43.017  72.152  0.00  0.00    +0.241 C 
ATOM      2  N   ILE A   6      53.301 -41.758  72.658  0.00  0.00    -0.297 N 
ATOM      3  H   ILE A   6      53.937 -41.637  73.471  0.00  0.00    +0.150 HD
ATOM      4  O   ASN A   5      52.413 -43.366  71.297  0.00  0.00    -0.273 OA
ENDROOT
BRANCH   2   5
ATOM      5  CA  ILE A   6      52.602 -40.547  72.222  0.00  0.00    +0.149 C 
BRANCH   5   6
ATOM      6  C   ILE A   6      51.076 -40.550  72.326  0.00  0.00    +0.241 C 
ATOM      7  O   ILE A   6      50.495 -39.592  72.851  0.00  0.00    -0.273 OA
ATOM      8  N   ILE A   7      50.428 -41.546  71.711  0.00  0.00    -0.297 N 
ATOM      9  H   ILE A   7      50.995 -42.320  71.310  0.00  0.00    +0.150 HD
BRANCH   8  10
ATOM     10  CA  ILE A   7      48.977 -41.618  71.566  0.00  0.00    +0.149 C 
BRANCH  10  11
ATOM     11  C   ILE A   7      48.457 -43.033  71.807  0.00  0.00    +0.241 C 
ATOM     12  N   GLY A   8      47.224 -43.123  72.281  0.00  0.00    -0.295 N 
ATOM     13  H   GLY A   8      46.732 -42.239  72.524  0.00  0.00    +0.150 HD
ATOM     14  O   ILE A   7      49.172 -44.002  71.566  0.00  0.00    -0.273 OA
BRANCH  12  15
ATOM     15  CA  GLY A   8      46.509 -44.378  72.486  0.00  0.00    +0.176 C 
BRANCH  15  16
ATOM     16  C   GLY A   8      45.114 -44.265  71.897  0.00  0.00    +0.243 C 
ATOM     17  O   GLY A   8      44.477 -43.218  72.003  0.00  0.00    -0.273 OA
ATOM     18  N   GLY A   9      44.662 -45.322  71.237  0.00  0.00    -0.295 N 
ATOM     19  H   GLY A   9      45.293 -46.142  71.131  0.00  0.00    +0.150 HD
BRANCH  18  20
ATOM     20  CA  GLY A   9      43.327 -45.399  70.651  0.00  0.00    +0.176 C 
BRANCH  20  21
ATOM     21  C   GLY A   9      42.565 -46.638  71.106  0.00  0.00    +0.243 C 
ATOM     22  O   GLY A   9      43.170 -47.619  71.574  0.00  0.00    -0.273 OA
ATOM     23  N   SER A  10      41.230 -46.601  70.983  0.00  0.00    -0.295 N 
ATOM     24  H   SER A  10      40.790 -45.736  70.608  0.00  0.00    +0.150 HD
BRANCH  23  25
ATOM     25  CA  SER A  10      40.360 -47.725  71.354  0.00  0.00    +0.178 C 
BRANCH  25  26
ATOM     26  C   SER A  10      40.682 -48.956  70.510  0.00  0.00    +0.243 C 
ATOM     27  N   ASP A  11      40.729 -50.165  71.137  0.00  0.00    -0.296 N 
ATOM     28  H   ASP A  11      40.537 -50.221  72.158  0.00  0.00    +0.150 HD
ATOM     29  O   SER A  10      40.881 -48.813  69.294  0.00  0.00    -0.273 OA
BRANCH  27  30
ATOM     30  CA  ASP A  11      41.046 -51.388  70.394  0.00  0.00    +0.160 C 
BRANCH  30  31
ATOM     31  C   ASP A  11      39.813 -52.021  69.713  0.00  0.00    +0.241 C 
ATOM     32  N   SER A  12      38.599 -51.583  70.078  0.00  0.00    -0.296 N 
ATOM     33  H   SER A  12      38.536 -50.824  70.786  0.00  0.00    +0.150 HD
ATOM     34  O   ASP A  11      39.967 -52.881  68.852  0.00  0.00    -0.273 OA
BRANCH  32  35
ATOM     35  CA  SER A  12      37.348 -52.131  69.518  0.00  0.00    +0.166 C 
BRANCH  35  36
ATOM     36  C   SER A  12      36.208 -51.138  69.678  0.00  0.00    +0.229 C 
ATOM     37  O   SER A  12      36.323 -50.186  70.455  0.00  0.00    -0.286 OA
ENDBRANCH  35  36
BRANCH  35  38
ATOM     38  CB  SER A  12      36.974 -53.441  70.225  0.00  0.00    +0.165 C 
BRANCH  38  39
ATOM     39  OG  SER A  12      36.680 -53.235  71.601  0.00  0.00    -0.380 OA
ATOM     40  H   SER A  12      37.474 -52.853  72.053  0.00  0.00    +0.211 HD
ENDBRANCH  38  39
ENDBRANCH  35  38
ENDBRANCH  32  35
ENDBRANCH  30  31
BRANCH  30  41
ATOM     41  CB  ASP A  11      41.831 -52.406  71.254  0.00  0.00    +0.143 C 
BRANCH  41  42
ATOM     42  CG  ASP A  11      41.170 -52.945  72.525  0.00  0.00    +0.367 C 
ATOM     43  OD2 ASP A  11      41.900 -53.470  73.393  0.00  0.00    -0.246 OA
ATOM     44  OD1 ASP A  11      39.923 -52.903  72.620  0.00  0.00    -0.246 OA
ENDBRANCH  41  42
ENDBRANCH  30  41
ENDBRANCH  27  30
ENDBRANCH  25  26
BRANCH  25  45
ATOM     45  CB  SER A  10      38.903 -47.329  71.155  0.00  0.00    +0.166 C 
BRANCH  45  46
ATOM     46  OG  SER A  10      38.515 -46.300  72.050  0.00  0.00    -0.380 OA
ATOM     47  H   SER A  10      38.630 -46.614  72.982  0.00  0.00    +0.211 HD
ENDBRANCH  45  46
ENDBRANCH  25  45
ENDBRANCH  23  25
ENDBRANCH  20  21
ENDBRANCH  18  20
ENDBRANCH  15  16
ENDBRANCH  12  15
ENDBRANCH  10  11
BRANCH  10  48
ATOM     48  CB  ILE A   7      48.587 -41.064  70.160  0.00  0.00    +0.027 C 
ATOM     49  CG2 ILE A   7      49.256 -41.876  69.020  0.00  0.00    +0.002 C 
BRANCH  48  50
ATOM     50  CG1 ILE A   7      47.038 -40.938  69.993  0.00  0.00    +0.002 C 
ATOM     51  CD1 ILE A   7      46.517 -40.302  68.761  0.00  0.00    +0.000 C 
ENDBRANCH  48  50
ENDBRANCH  10  48
ENDBRANCH   8  10
ENDBRANCH   5   6
BRANCH   5  52
ATOM     52  CB  ILE A   6      53.053 -40.258  70.733  0.00  0.00    +0.027 C 
ATOM     53  CG2 ILE A   6      52.433 -39.004  70.149  0.00  0.00    +0.002 C 
BRANCH  52  54
ATOM     54  CG1 ILE A   6      54.599 -40.262  70.594  0.00  0.00    +0.002 C 
ATOM     55  CD1 ILE A   6      55.077 -40.817  69.302  0.00  0.00    +0.000 C 
ENDBRANCH  52  54
ENDBRANCH   5  52
ENDBRANCH   2   5
BRANCH   1  56
ATOM     56  CA  ASN A   5      54.338 -43.997  72.635  0.00  0.00    +0.158 C 
BRANCH  56  58
ATOM     57  C   ARG A   4      56.051 -43.130  74.140  0.00  0.00    +0.241 C 
ATOM     58  N   ASN A   5      54.857 -43.706  73.963  0.00  0.00    -0.297 N 
ATOM     59  H   ASN A   5      54.285 -43.952  74.796  0.00  0.00    +0.150 HD
ATOM     60  O   ARG A   4      56.755 -42.756  73.203  0.00  0.00    -0.273 OA
BRANCH  57  61
ATOM     61  CA  ARG A   4      56.545 -43.001  75.592  0.00  0.00    +0.149 C 
BRANCH  61  64
ATOM     62  C   GLY A   3      56.118 -44.847  77.212  0.00  0.00    +0.243 C 
ATOM     63  O   GLY A   3      55.406 -44.154  77.934  0.00  0.00    -0.273 OA
ATOM     64  N   ARG A   4      56.708 -44.370  76.104  0.00  0.00    -0.297 N 
ATOM     65  H   ARG A   4      57.324 -45.015  75.570  0.00  0.00    +0.150 HD
BRANCH  62  66
ATOM     66  CA  GLY A   3      56.395 -46.298  77.571  0.00  0.00    +0.176 C 
BRANCH  66  68
ATOM     67  C   VAL A   2      56.179 -47.545  75.478  0.00  0.00    +0.241 C 
ATOM     68  N   GLY A   3      56.933 -47.110  76.483  0.00  0.00    -0.295 N 
ATOM     69  H   GLY A   3      57.943 -47.357  76.495  0.00  0.00    +0.150 HD
ATOM     70  O   VAL A   2      54.989 -47.294  75.373  0.00  0.00    -0.273 OA
BRANCH  67  71
ATOM     71  CA  VAL A   2      56.856 -48.385  74.392  0.00  0.00    +0.148 C 
BRANCH  71  73
ATOM     72  C   ASP A   1      58.423 -46.581  73.647  0.00  0.00    +0.239 C 
ATOM     73  N   VAL A   2      58.178 -47.833  74.068  0.00  0.00    -0.297 N 
ATOM     74  H   VAL A   2      58.996 -48.467  74.174  0.00  0.00    +0.150 HD
ATOM     75  O   ASP A   1      57.551 -45.729  73.503  0.00  0.00    -0.274 OA
BRANCH  72  76
ATOM     76  CA  ASP A   1      59.874 -46.214  73.435  0.00  0.00    +0.156 C 
BRANCH  76  77
ATOM     77  N   ASP A   1      60.102 -45.381  72.246  0.00  0.00    -0.238 NA
ATOM     78  H   ASP A   1      59.565 -44.496  72.143  0.00  0.00    +0.142 HD
ENDBRANCH  76  77
BRANCH  76  79
ATOM     79  CB  ASP A   1      60.385 -45.478  74.694  0.00  0.00    +0.140 C 
BRANCH  79  80
ATOM     80  CG  ASP A   1      60.883 -46.325  75.860  0.00  0.00    +0.367 C 
ATOM     81  OD2 ASP A   1      61.501 -45.764  76.775  0.00  0.00    -0.246 OA
ATOM     82  OD1 ASP A   1      60.639 -47.535  75.863  0.00  0.00    -0.246 OA
ENDBRANCH  79  80
ENDBRANCH  76  79
ENDBRANCH  72  76
ENDBRANCH  71  73
BRANCH  71  83
ATOM     83  CB  VAL A   2      56.950 -49.899  74.789  0.00  0.00    +0.027 C 
ATOM     84  CG2 VAL A   2      55.638 -50.406  75.383  0.00  0.00    +0.002 C 
ATOM     85  CG1 VAL A   2      57.364 -50.762  73.598  0.00  0.00    +0.002 C 
ENDBRANCH  71  83
ENDBRANCH  67  71
ENDBRANCH  66  68
ENDBRANCH  62  66
ENDBRANCH  61  64
BRANCH  61  86
ATOM     86  CB  ARG A   4      57.891 -42.221  75.693  0.00  0.00    +0.033 C 
BRANCH  86  87
ATOM     87  CG  ARG A   4      58.471 -42.096  77.103  0.00  0.00    +0.045 C 
BRANCH  87  88
ATOM     88  CD  ARG A   4      57.685 -41.149  77.967  0.00  0.00    +0.174 C 
BRANCH  88  89
ATOM     89  NE  ARG A   4      58.187 -41.066  79.345  0.00  0.00    -0.265 N 
ATOM     90  CZ  ARG A   4      57.802 -41.851  80.351  0.00  0.00    +0.342 C 
ATOM     91  NH2 ARG A   4      58.294 -41.669  81.567  0.00  0.00    -0.292 N 
ATOM     92 HH21 ARG A   4      57.990 -42.284  82.348  0.00  0.00    +0.255 HD
ATOM     93 HH22 ARG A   4      58.984 -40.911  81.741  0.00  0.00    +0.255 HD
ATOM     94  NH1 ARG A   4      56.924 -42.820  80.147  0.00  0.00    -0.292 N 
ATOM     95 HH11 ARG A   4      56.628 -43.429  80.937  0.00  0.00    +0.255 HD
ATOM     96 HH12 ARG A   4      56.530 -42.973  79.197  0.00  0.00    +0.255 HD
ATOM     97  HE  ARG A   4      58.899 -40.337  79.552  0.00  0.00    +0.259 HD
ENDBRANCH  88  89
ENDBRANCH  87  88
ENDBRANCH  86  87
ENDBRANCH  61  86
ENDBRANCH  57  61
ENDBRANCH  56  58
BRANCH  56  98
ATOM     98  CB  ASN A   5      53.918 -45.475  72.506  0.00  0.00    +0.114 C 
BRANCH  98  99
ATOM     99  CG  ASN A   5      52.758 -45.939  73.350  0.00  0.00    +0.222 C 
ATOM    100  OD1 ASN A   5      52.094 -45.178  74.044  0.00  0.00    -0.275 OA
ATOM    101  ND2 ASN A   5      52.489 -47.225  73.288  0.00  0.00    -0.329 N 
ATOM    102 HD21 ASN A   5      51.697 -47.618  73.836  0.00  0.00    +0.145 HD
ATOM    103 HD22 ASN A   5      53.068 -47.849  72.691  0.00  0.00    +0.145 HD
ENDBRANCH  98  99
ENDBRANCH  56  98
ENDBRANCH   1  56
TORSDOF 43
REMARK  Name = ../refined-set-2016/4cp5/4cp5_pocket.pdb
REMARK  137 active torsions:
REMARK  status: ('A' for Active; 'I' for Inactive)
REMARK    1  A    between atoms: _1  and  _3
REMARK    2  A    between atoms: _3  and  _4
REMARK    3  A    between atoms: _7  and  _9
REMARK    4  A    between atoms: _9  and  _10
REMARK    5  A    between atoms: _9  and  _12
REMARK    6  A    between atoms: _12  and  _13
REMARK    7  A    between atoms: _13  and  _14
REMARK    8  A    between atoms: _14  and  _15
REMARK    9  A    between atoms: _15  and  _16
REMARK   10  A    between atoms: _20  and  _22
REMARK   11  A    between atoms: _22  and  _23
REMARK   12  A    between atoms: _22  and  _25
REMARK   13  A    between atoms: _25  and  _26
REMARK   14  A    between atoms: _31  and  _33
REMARK   15  A    between atoms: _33  and  _34
REMARK   16  A    between atoms: _33  and  _36
REMARK   17  A    between atoms: _36  and  _37
REMARK   18  A    between atoms: _42  and  _43
REMARK   19  A    between atoms: _45  and  _47
REMARK   20  A    between atoms: _47  and  _48
REMARK   21  A    between atoms: _47  and  _50
REMARK   22  A    between atoms: _51  and  _52
REMARK   23  A    between atoms: _55  and  _57
REMARK   24  A    between atoms: _57  and  _58
REMARK   25  A    between atoms: _57  and  _60
REMARK   26  A    between atoms: _60  and  _61
REMARK   27  A    between atoms: _66  and  _68
REMARK   28  A    between atoms: _68  and  _69
REMARK   29  A    between atoms: _68  and  _71
REMARK   30  A    between atoms: _71  and  _72
REMARK   31  A    between atoms: _72  and  _73
REMARK   32  A    between atoms: _73  and  _74
REMARK   33  A    between atoms: _84  and  _85
REMARK   34  A    between atoms: _90  and  _92
REMARK   35  A    between atoms: _92  and  _93
REMARK   36  A    between atoms: _92  and  _95
REMARK   37  A    between atoms: _95  and  _96
REMARK   38  A    between atoms: _102  and  _104
REMARK   39  A    between atoms: _104  and  _105
REMARK   40  A    between atoms: _104  and  _107
REMARK   41  A    between atoms: _107  and  _108
REMARK   42  A    between atoms: _114  and  _116
REMARK   43  A    between atoms: _116  and  _117
REMARK   44  A    between atoms: _119  and  _121
REMARK   45  A    between atoms: _121  and  _122
REMARK   46  A    between atoms: _121  and  _124
REMARK   47  A    between atoms: _124  and  _125
REMARK   48  A    between atoms: _128  and  _130
REMARK   49  A    between atoms: _130  and  _131
REMARK   50  A    between atoms: _130  and  _133
REMARK   51  A    between atoms: _133  and  _134
REMARK   52  A    between atoms: _137  and  _139
REMARK   53  A    between atoms: _139  and  _140
REMARK   54  A    between atoms: _139  and  _142
REMARK   55  A    between atoms: _142  and  _143
REMARK   56  A    between atoms: _143  and  _144
REMARK   57  A    between atoms: _144  and  _145
REMARK   58  A    between atoms: _154  and  _156
REMARK   59  A    between atoms: _156  and  _157
REMARK   60  A    between atoms: _156  and  _159
REMARK   61  A    between atoms: _159  and  _160
REMARK   62  A    between atoms: _163  and  _165
REMARK   63  A    between atoms: _165  and  _166
REMARK   64  A    between atoms: _168  and  _170
REMARK   65  A    between atoms: _170  and  _171
REMARK   66  A    between atoms: _170  and  _173
REMARK   67  A    between atoms: _176  and  _178
REMARK   68  A    between atoms: _178  and  _179
REMARK   69  A    between atoms: _178  and  _181
REMARK   70  A    between atoms: _181  and  _182
REMARK   71  A    between atoms: _185  and  _187
REMARK   72  A    between atoms: _187  and  _188
REMARK   73  A    between atoms: _187  and  _190
REMARK   74  A    between atoms: _190  and  _191
REMARK   75  A    between atoms: _196  and  _198
REMARK   76  A    between atoms: _198  and  _199
REMARK   77  A    between atoms: _198  and  _201
REMARK   78  A    between atoms: _201  and  _202
REMARK   79  A    between atoms: _202  and  _203
REMARK   80  A    between atoms: _203  and  _204
REMARK   81  A    between atoms: _213  and  _215
REMARK   82  A    between atoms: _215  and  _216
REMARK   83  A    between atoms: _215  and  _218
REMARK   84  A    between atoms: _218  and  _219
REMARK   85  A    between atoms: _222  and  _224
REMARK   86  A    between atoms: _224  and  _225
REMARK   87  A    between atoms: _224  and  _227
REMARK   88  A    between atoms: _230  and  _232
REMARK   89  A    between atoms: _232  and  _233
REMARK   90  A    between atoms: _235  and  _237
REMARK   91  A    between atoms: _237  and  _238
REMARK   92  A    between atoms: _237  and  _240
REMARK   93  A    between atoms: _240  and  _241
REMARK   94  A    between atoms: _241  and  _242
REMARK   95  A    between atoms: _242  and  _243
REMARK   96  A    between atoms: _252  and  _254
REMARK   97  A    between atoms: _254  and  _255
REMARK   98  A    between atoms: _254  and  _257
REMARK   99  A    between atoms: _257  and  _258
REMARK  100  A    between atoms: _263  and  _265
REMARK  101  A    between atoms: _265  and  _266
REMARK  102  A    between atoms: _265  and  _268
REMARK  103  A    between atoms: _268  and  _269
REMARK  104  A    between atoms: _272  and  _274
REMARK  105  A    between atoms: _274  and  _275
REMARK  106  A    between atoms: _274  and  _277
REMARK  107  A    between atoms: _277  and  _278
REMARK  108  A    between atoms: _281  and  _283
REMARK  109  A    between atoms: _283  and  _284
REMARK  110  A    between atoms: _286  and  _288
REMARK  111  A    between atoms: _288  and  _289
REMARK  112  A    between atoms: _291  and  _293
REMARK  113  A    between atoms: _293  and  _294
REMARK  114  A    between atoms: _293  and  _296
REMARK  115  A    between atoms: _296  and  _297
REMARK  116  A    between atoms: _299  and  _301
REMARK  117  A    between atoms: _301  and  _302
REMARK  118  A    between atoms: _301  and  _304
REMARK  119  A    between atoms: _304  and  _305
REMARK  120  A    between atoms: _308  and  _310
REMARK  121  A    between atoms: _310  and  _311
REMARK  122  A    between atoms: _310  and  _313
REMARK  123  A    between atoms: _313  and  _314
REMARK  124  A    between atoms: _316  and  _318
REMARK  125  A    between atoms: _318  and  _319
REMARK  126  A    between atoms: _318  and  _321
REMARK  127  A    between atoms: _321  and  _322
REMARK  128  A    between atoms: _324  and  _326
REMARK  129  A    between atoms: _326  and  _327
REMARK  130  A    between atoms: _326  and  _329
REMARK  131  A    between atoms: _329  and  _330
REMARK  132  A    between atoms: _330  and  _331
REMARK  133  A    between atoms: _334  and  _336
REMARK  134  A    between atoms: _336  and  _337
REMARK  135  A    between atoms: _336  and  _339
REMARK  136  A    between atoms: _339  and  _340
REMARK  137  A    between atoms: _340  and  _341
REMARK                            x       y       z     vdW  Elec       q    Type
REMARK                         _______ _______ _______ _____ _____    ______ ____
ROOT
ATOM      1  CA  SER A   1      36.107 -50.434  74.152  0.00  0.00    +0.163 C 
ENDROOT
BRANCH   1   2
ATOM      2  N   SER A   1      35.159 -51.202  73.334  0.00  0.00    -0.237 NA
ATOM      3  H   SER A   1      35.541 -51.833  72.601  0.00  0.00    +0.142 HD
ENDBRANCH   1   2
BRANCH   1   4
ATOM      4  C   SER A   1      35.932 -48.936  73.934  0.00  0.00    +0.227 C 
ATOM      5  O   SER A   1      36.005 -48.162  74.899  0.00  0.00    -0.287 OA
ENDBRANCH   1   4
BRANCH   1   6
ATOM      6  CB  SER A   1      37.546 -50.832  73.839  0.00  0.00    +0.162 C 
BRANCH   6   7
ATOM      7  OG  SER A   1      37.811 -52.182  74.179  0.00  0.00    -0.380 OA
ATOM      8  H   SER A   1      38.752 -52.398  73.960  0.00  0.00    +0.211 HD
ENDBRANCH   6   7
ENDBRANCH   1   6
TORSDOF 4
REMARK  Name = ../refined-set-2016/4cp5/4cp5_pocket.pdb
REMARK  137 active torsions:
REMARK  status: ('A' for Active; 'I' for Inactive)
REMARK    1  A    between atoms: _1  and  _3
REMARK    2  A    between atoms: _3  and  _4
REMARK    3  A    between atoms: _7  and  _9
REMARK    4  A    between atoms: _9  and  _10
REMARK    5  A    between atoms: _9  and  _12
REMARK    6  A    between atoms: _12  and  _13
REMARK    7  A    between atoms: _13  and  _14
REMARK    8  A    between atoms: _14  and  _15
REMARK    9  A    between atoms: _15  and  _16
REMARK   10  A    between atoms: _20  and  _22
REMARK   11  A    between atoms: _22  and  _23
REMARK   12  A    between atoms: _22  and  _25
REMARK   13  A    between atoms: _25  and  _26
REMARK   14  A    between atoms: _31  and  _33
REMARK   15  A    between atoms: _33  and  _34
REMARK   16  A    between atoms: _33  and  _36
REMARK   17  A    between atoms: _36  and  _37
REMARK   18  A    between atoms: _42  and  _43
REMARK   19  A    between atoms: _45  and  _47
REMARK   20  A    between atoms: _47  and  _48
REMARK   21  A    between atoms: _47  and  _50
REMARK   22  A    between atoms: _51  and  _52
REMARK   23  A    between atoms: _55  and  _57
REMARK   24  A    between atoms: _57  and  _58
REMARK   25  A    between atoms: _57  and  _60
REMARK   26  A    between atoms: _60  and  _61
REMARK   27  A    between atoms: _66  and  _68
REMARK   28  A    between atoms: _68  and  _69
REMARK   29  A    between atoms: _68  and  _71
REMARK   30  A    between atoms: _71  and  _72
REMARK   31  A    between atoms: _72  and  _73
REMARK   32  A    between atoms: _73  and  _74
REMARK   33  A    between atoms: _84  and  _85
REMARK   34  A    between atoms: _90  and  _92
REMARK   35  A    between atoms: _92  and  _93
REMARK   36  A    between atoms: _92  and  _95
REMARK   37  A    between atoms: _95  and  _96
REMARK   38  A    between atoms: _102  and  _104
REMARK   39  A    between atoms: _104  and  _105
REMARK   40  A    between atoms: _104  and  _107
REMARK   41  A    between atoms: _107  and  _108
REMARK   42  A    between atoms: _114  and  _116
REMARK   43  A    between atoms: _116  and  _117
REMARK   44  A    between atoms: _119  and  _121
REMARK   45  A    between atoms: _121  and  _122
REMARK   46  A    between atoms: _121  and  _124
REMARK   47  A    between atoms: _124  and  _125
REMARK   48  A    between atoms: _128  and  _130
REMARK   49  A    between atoms: _130  and  _131
REMARK   50  A    between atoms: _130  and  _133
REMARK   51  A    between atoms: _133  and  _134
REMARK   52  A    between atoms: _137  and  _139
REMARK   53  A    between atoms: _139  and  _140
REMARK   54  A    between atoms: _139  and  _142
REMARK   55  A    between atoms: _142  and  _143
REMARK   56  A    between atoms: _143  and  _144
REMARK   57  A    between atoms: _144  and  _145
REMARK   58  A    between atoms: _154  and  _156
REMARK   59  A    between atoms: _156  and  _157
REMARK   60  A    between atoms: _156  and  _159
REMARK   61  A    between atoms: _159  and  _160
REMARK   62  A    between atoms: _163  and  _165
REMARK   63  A    between atoms: _165  and  _166
REMARK   64  A    between atoms: _168  and  _170
REMARK   65  A    between atoms: _170  and  _171
REMARK   66  A    between atoms: _170  and  _173
REMARK   67  A    between atoms: _176  and  _178
REMARK   68  A    between atoms: _178  and  _179
REMARK   69  A    between atoms: _178  and  _181
REMARK   70  A    between atoms: _181  and  _182
REMARK   71  A    between atoms: _185  and  _187
REMARK   72  A    between atoms: _187  and  _188
REMARK   73  A    between atoms: _187  and  _190
REMARK   74  A    between atoms: _190  and  _191
REMARK   75  A    between atoms: _196  and  _198
REMARK   76  A    between atoms: _198  and  _199
REMARK   77  A    between atoms: _198  and  _201
REMARK   78  A    between atoms: _201  and  _202
REMARK   79  A    between atoms: _202  and  _203
REMARK   80  A    between atoms: _203  and  _204
REMARK   81  A    between atoms: _213  and  _215
REMARK   82  A    between atoms: _215  and  _216
REMARK   83  A    between atoms: _215  and  _218
REMARK   84  A    between atoms: _218  and  _219
REMARK   85  A    between atoms: _222  and  _224
REMARK   86  A    between atoms: _224  and  _225
REMARK   87  A    between atoms: _224  and  _227
REMARK   88  A    between atoms: _230  and  _232
REMARK   89  A    between atoms: _232  and  _233
REMARK   90  A    between atoms: _235  and  _237
REMARK   91  A    between atoms: _237  and  _238
REMARK   92  A    between atoms: _237  and  _240
REMARK   93  A    between atoms: _240  and  _241
REMARK   94  A    between atoms: _241  and  _242
REMARK   95  A    between atoms: _242  and  _243
REMARK   96  A    between atoms: _252  and  _254
REMARK   97  A    between atoms: _254  and  _255
REMARK   98  A    between atoms: _254  and  _257
REMARK   99  A    between atoms: _257  and  _258
REMARK  100  A    between atoms: _263  and  _265
REMARK  101  A    between atoms: _265  and  _266
REMARK  102  A    between atoms: _265  and  _268
REMARK  103  A    between atoms: _268  and  _269
REMARK  104  A    between atoms: _272  and  _274
REMARK  105  A    between atoms: _274  and  _275
REMARK  106  A    between atoms: _274  and  _277
REMARK  107  A    between atoms: _277  and  _278
REMARK  108  A    between atoms: _281  and  _283
REMARK  109  A    between atoms: _283  and  _284
REMARK  110  A    between atoms: _286  and  _288
REMARK  111  A    between atoms: _288  and  _289
REMARK  112  A    between atoms: _291  and  _293
REMARK  113  A    between atoms: _293  and  _294
REMARK  114  A    between atoms: _293  and  _296
REMARK  115  A    between atoms: _296  and  _297
REMARK  116  A    between atoms: _299  and  _301
REMARK  117  A    between atoms: _301  and  _302
REMARK  118  A    between atoms: _301  and  _304
REMARK  119  A    between atoms: _304  and  _305
REMARK  120  A    between atoms: _308  and  _310
REMARK  121  A    between atoms: _310  and  _311
REMARK  122  A    between atoms: _310  and  _313
REMARK  123  A    between atoms: _313  and  _314
REMARK  124  A    between atoms: _316  and  _318
REMARK  125  A    between atoms: _318  and  _319
REMARK  126  A    between atoms: _318  and  _321
REMARK  127  A    between atoms: _321  and  _322
REMARK  128  A    between atoms: _324  and  _326
REMARK  129  A    between atoms: _326  and  _327
REMARK  130  A    between atoms: _326  and  _329
REMARK  131  A    between atoms: _329  and  _330
REMARK  132  A    between atoms: _330  and  _331
REMARK  133  A    between atoms: _334  and  _336
REMARK  134  A    between atoms: _336  and  _337
REMARK  135  A    between atoms: _336  and  _339
REMARK  136  A    between atoms: _339  and  _340
REMARK  137  A    between atoms: _340  and  _341
REMARK                            x       y       z     vdW  Elec       q    Type
REMARK                         _______ _______ _______ _____ _____    ______ ____
ROOT
ATOM      1  CA  GLU A   1      36.089 -45.101  76.832  0.00  0.00    +0.134 C 
ENDROOT
BRANCH   1   2
ATOM      2  N   GLU A   1      35.091 -46.164  76.651  0.00  0.00    -0.239 NA
ATOM      3  H   GLU A   1      35.244 -46.856  75.889  0.00  0.00    +0.142 HD
ENDBRANCH   1   2
BRANCH   1   4
ATOM      4  C   GLU A   1      35.512 -43.699  76.634  0.00  0.00    +0.224 C 
ATOM      5  O   GLU A   1      35.808 -42.816  77.443  0.00  0.00    -0.287 OA
ENDBRANCH   1   4
BRANCH   1   6
ATOM      6  CB  GLU A   1      37.336 -45.333  75.955  0.00  0.00    +0.037 C 
BRANCH   6   7
ATOM      7  CG  GLU A   1      38.306 -46.340  76.547  0.00  0.00    +0.116 C 
BRANCH   7   8
ATOM      8  CD  GLU A   1      39.226 -47.022  75.551  0.00  0.00    +0.365 C 
ATOM      9  OE2 GLU A   1      39.652 -48.163  75.838  0.00  0.00    -0.246 OA
ATOM     10  OE1 GLU A   1      39.542 -46.414  74.501  0.00  0.00    -0.246 OA
ENDBRANCH   7   8
ENDBRANCH   6   7
ENDBRANCH   1   6
TORSDOF 5
REMARK  Name = ../refined-set-2016/4cp5/4cp5_pocket.pdb
REMARK  137 active torsions:
REMARK  status: ('A' for Active; 'I' for Inactive)
REMARK    1  A    between atoms: _1  and  _3
REMARK    2  A    between atoms: _3  and  _4
REMARK    3  A    between atoms: _7  and  _9
REMARK    4  A    between atoms: _9  and  _10
REMARK    5  A    between atoms: _9  and  _12
REMARK    6  A    between atoms: _12  and  _13
REMARK    7  A    between atoms: _13  and  _14
REMARK    8  A    between atoms: _14  and  _15
REMARK    9  A    between atoms: _15  and  _16
REMARK   10  A    between atoms: _20  and  _22
REMARK   11  A    between atoms: _22  and  _23
REMARK   12  A    between atoms: _22  and  _25
REMARK   13  A    between atoms: _25  and  _26
REMARK   14  A    between atoms: _31  and  _33
REMARK   15  A    between atoms: _33  and  _34
REMARK   16  A    between atoms: _33  and  _36
REMARK   17  A    between atoms: _36  and  _37
REMARK   18  A    between atoms: _42  and  _43
REMARK   19  A    between atoms: _45  and  _47
REMARK   20  A    between atoms: _47  and  _48
REMARK   21  A    between atoms: _47  and  _50
REMARK   22  A    between atoms: _51  and  _52
REMARK   23  A    between atoms: _55  and  _57
REMARK   24  A    between atoms: _57  and  _58
REMARK   25  A    between atoms: _57  and  _60
REMARK   26  A    between atoms: _60  and  _61
REMARK   27  A    between atoms: _66  and  _68
REMARK   28  A    between atoms: _68  and  _69
REMARK   29  A    between atoms: _68  and  _71
REMARK   30  A    between atoms: _71  and  _72
REMARK   31  A    between atoms: _72  and  _73
REMARK   32  A    between atoms: _73  and  _74
REMARK   33  A    between atoms: _84  and  _85
REMARK   34  A    between atoms: _90  and  _92
REMARK   35  A    between atoms: _92  and  _93
REMARK   36  A    between atoms: _92  and  _95
REMARK   37  A    between atoms: _95  and  _96
REMARK   38  A    between atoms: _102  and  _104
REMARK   39  A    between atoms: _104  and  _105
REMARK   40  A    between atoms: _104  and  _107
REMARK   41  A    between atoms: _107  and  _108
REMARK   42  A    between atoms: _114  and  _116
REMARK   43  A    between atoms: _116  and  _117
REMARK   44  A    between atoms: _119  and  _121
REMARK   45  A    between atoms: _121  and  _122
REMARK   46  A    between atoms: _121  and  _124
REMARK   47  A    between atoms: _124  and  _125
REMARK   48  A    between atoms: _128  and  _130
REMARK   49  A    between atoms: _130  and  _131
REMARK   50  A    between atoms: _130  and  _133
REMARK   51  A    between atoms: _133  and  _134
REMARK   52  A    between atoms: _137  and  _139
REMARK   53  A    between atoms: _139  and  _140
REMARK   54  A    between atoms: _139  and  _142
REMARK   55  A    between atoms: _142  and  _143
REMARK   56  A    between atoms: _143  and  _144
REMARK   57  A    between atoms: _144  and  _145
REMARK   58  A    between atoms: _154  and  _156
REMARK   59  A    between atoms: _156  and  _157
REMARK   60  A    between atoms: _156  and  _159
REMARK   61  A    between atoms: _159  and  _160
REMARK   62  A    between atoms: _163  and  _165
REMARK   63  A    between atoms: _165  and  _166
REMARK   64  A    between atoms: _168  and  _170
REMARK   65  A    between atoms: _170  and  _171
REMARK   66  A    between atoms: _170  and  _173
REMARK   67  A    between atoms: _176  and  _178
REMARK   68  A    between atoms: _178  and  _179
REMARK   69  A    between atoms: _178  and  _181
REMARK   70  A    between atoms: _181  and  _182
REMARK   71  A    between atoms: _185  and  _187
REMARK   72  A    between atoms: _187  and  _188
REMARK   73  A    between atoms: _187  and  _190
REMARK   74  A    between atoms: _190  and  _191
REMARK   75  A    between atoms: _196  and  _198
REMARK   76  A    between atoms: _198  and  _199
REMARK   77  A    between atoms: _198  and  _201
REMARK   78  A    between atoms: _201  and  _202
REMARK   79  A    between atoms: _202  and  _203
REMARK   80  A    between atoms: _203  and  _204
REMARK   81  A    between atoms: _213  and  _215
REMARK   82  A    between atoms: _215  and  _216
REMARK   83  A    between atoms: _215  and  _218
REMARK   84  A    between atoms: _218  and  _219
REMARK   85  A    between atoms: _222  and  _224
REMARK   86  A    between atoms: _224  and  _225
REMARK   87  A    between atoms: _224  and  _227
REMARK   88  A    between atoms: _230  and  _232
REMARK   89  A    between atoms: _232  and  _233
REMARK   90  A    between atoms: _235  and  _237
REMARK   91  A    between atoms: _237  and  _238
REMARK   92  A    between atoms: _237  and  _240
REMARK   93  A    between atoms: _240  and  _241
REMARK   94  A    between atoms: _241  and  _242
REMARK   95  A    between atoms: _242  and  _243
REMARK   96  A    between atoms: _252  and  _254
REMARK   97  A    between atoms: _254  and  _255
REMARK   98  A    between atoms: _254  and  _257
REMARK   99  A    between atoms: _257  and  _258
REMARK  100  A    between atoms: _263  and  _265
REMARK  101  A    between atoms: _265  and  _266
REMARK  102  A    between atoms: _265  and  _268
REMARK  103  A    between atoms: _268  and  _269
REMARK  104  A    between atoms: _272  and  _274
REMARK  105  A    between atoms: _274  and  _275
REMARK  106  A    between atoms: _274  and  _277
REMARK  107  A    between atoms: _277  and  _278
REMARK  108  A    between atoms: _281  and  _283
REMARK  109  A    between atoms: _283  and  _284
REMARK  110  A    between atoms: _286  and  _288
REMARK  111  A    between atoms: _288  and  _289
REMARK  112  A    between atoms: _291  and  _293
REMARK  113  A    between atoms: _293  and  _294
REMARK  114  A    between atoms: _293  and  _296
REMARK  115  A    between atoms: _296  and  _297
REMARK  116  A    between atoms: _299  and  _301
REMARK  117  A    between atoms: _301  and  _302
REMARK  118  A    between atoms: _301  and  _304
REMARK  119  A    between atoms: _304  and  _305
REMARK  120  A    between atoms: _308  and  _310
REMARK  121  A    between atoms: _310  and  _311
REMARK  122  A    between atoms: _310  and  _313
REMARK  123  A    between atoms: _313  and  _314
REMARK  124  A    between atoms: _316  and  _318
REMARK  125  A    between atoms: _318  and  _319
REMARK  126  A    between atoms: _318  and  _321
REMARK  127  A    between atoms: _321  and  _322
REMARK  128  A    between atoms: _324  and  _326
REMARK  129  A    between atoms: _326  and  _327
REMARK  130  A    between atoms: _326  and  _329
REMARK  131  A    between atoms: _329  and  _330
REMARK  132  A    between atoms: _330  and  _331
REMARK  133  A    between atoms: _334  and  _336
REMARK  134  A    between atoms: _336  and  _337
REMARK  135  A    between atoms: _336  and  _339
REMARK  136  A    between atoms: _339  and  _340
REMARK  137  A    between atoms: _340  and  _341
REMARK                            x       y       z     vdW  Elec       q    Type
REMARK                         _______ _______ _______ _____ _____    ______ ____
ROOT
ATOM      1  CA  GLU A   1      60.759 -43.991  80.237  0.00  0.00    +0.172 C 
ENDROOT
BRANCH   1   2
ATOM      2  C   GLU A   1      61.871 -44.109  81.298  0.00  0.00    +0.380 C 
ATOM      3  OXT GLU A   1      61.677 -43.639  82.447  0.00  0.00    -0.244 OA
ATOM      4  O   GLU A   1      62.955 -44.635  80.955  0.00  0.00    -0.244 OA
ENDBRANCH   1   2
BRANCH   1   5
ATOM      5  N   GLU A   1      61.342 -43.752  78.903  0.00  0.00    -0.236 NA
ATOM      6  H   GLU A   1      61.342 -44.534  78.218  0.00  0.00    +0.142 HD
ENDBRANCH   1   5
BRANCH   1   7
ATOM      7  CB  GLU A   1      59.871 -45.252  80.222  0.00  0.00    +0.040 C 
BRANCH   7   8
ATOM      8  CG  GLU A   1      59.029 -45.434  81.482  0.00  0.00    +0.116 C 
BRANCH   8   9
ATOM      9  CD  GLU A   1      57.838 -46.362  81.353  0.00  0.00    +0.365 C 
ATOM     10  OE2 GLU A   1      56.774 -46.041  81.934  0.00  0.00    -0.246 OA
ATOM     11  OE1 GLU A   1      57.970 -47.417  80.691  0.00  0.00    -0.246 OA
ENDBRANCH   8   9
ENDBRANCH   7   8
ENDBRANCH   1   7
TORSDOF 5
REMARK  Name = ../refined-set-2016/4cp5/4cp5_pocket.pdb
REMARK  137 active torsions:
REMARK  status: ('A' for Active; 'I' for Inactive)
REMARK    1  A    between atoms: _1  and  _3
REMARK    2  A    between atoms: _3  and  _4
REMARK    3  A    between atoms: _7  and  _9
REMARK    4  A    between atoms: _9  and  _10
REMARK    5  A    between atoms: _9  and  _12
REMARK    6  A    between atoms: _12  and  _13
REMARK    7  A    between atoms: _13  and  _14
REMARK    8  A    between atoms: _14  and  _15
REMARK    9  A    between atoms: _15  and  _16
REMARK   10  A    between atoms: _20  and  _22
REMARK   11  A    between atoms: _22  and  _23
REMARK   12  A    between atoms: _22  and  _25
REMARK   13  A    between atoms: _25  and  _26
REMARK   14  A    between atoms: _31  and  _33
REMARK   15  A    between atoms: _33  and  _34
REMARK   16  A    between atoms: _33  and  _36
REMARK   17  A    between atoms: _36  and  _37
REMARK   18  A    between atoms: _42  and  _43
REMARK   19  A    between atoms: _45  and  _47
REMARK   20  A    between atoms: _47  and  _48
REMARK   21  A    between atoms: _47  and  _50
REMARK   22  A    between atoms: _51  and  _52
REMARK   23  A    between atoms: _55  and  _57
REMARK   24  A    between atoms: _57  and  _58
REMARK   25  A    between atoms: _57  and  _60
REMARK   26  A    between atoms: _60  and  _61
REMARK   27  A    between atoms: _66  and  _68
REMARK   28  A    between atoms: _68  and  _69
REMARK   29  A    between atoms: _68  and  _71
REMARK   30  A    between atoms: _71  and  _72
REMARK   31  A    between atoms: _72  and  _73
REMARK   32  A    between atoms: _73  and  _74
REMARK   33  A    between atoms: _84  and  _85
REMARK   34  A    between atoms: _90  and  _92
REMARK   35  A    between atoms: _92  and  _93
REMARK   36  A    between atoms: _92  and  _95
REMARK   37  A    between atoms: _95  and  _96
REMARK   38  A    between atoms: _102  and  _104
REMARK   39  A    between atoms: _104  and  _105
REMARK   40  A    between atoms: _104  and  _107
REMARK   41  A    between atoms: _107  and  _108
REMARK   42  A    between atoms: _114  and  _116
REMARK   43  A    between atoms: _116  and  _117
REMARK   44  A    between atoms: _119  and  _121
REMARK   45  A    between atoms: _121  and  _122
REMARK   46  A    between atoms: _121  and  _124
REMARK   47  A    between atoms: _124  and  _125
REMARK   48  A    between atoms: _128  and  _130
REMARK   49  A    between atoms: _130  and  _131
REMARK   50  A    between atoms: _130  and  _133
REMARK   51  A    between atoms: _133  and  _134
REMARK   52  A    between atoms: _137  and  _139
REMARK   53  A    between atoms: _139  and  _140
REMARK   54  A    between atoms: _139  and  _142
REMARK   55  A    between atoms: _142  and  _143
REMARK   56  A    between atoms: _143  and  _144
REMARK   57  A    between atoms: _144  and  _145
REMARK   58  A    between atoms: _154  and  _156
REMARK   59  A    between atoms: _156  and  _157
REMARK   60  A    between atoms: _156  and  _159
REMARK   61  A    between atoms: _159  and  _160
REMARK   62  A    between atoms: _163  and  _165
REMARK   63  A    between atoms: _165  and  _166
REMARK   64  A    between atoms: _168  and  _170
REMARK   65  A    between atoms: _170  and  _171
REMARK   66  A    between atoms: _170  and  _173
REMARK   67  A    between atoms: _176  and  _178
REMARK   68  A    between atoms: _178  and  _179
REMARK   69  A    between atoms: _178  and  _181
REMARK   70  A    between atoms: _181  and  _182
REMARK   71  A    between atoms: _185  and  _187
REMARK   72  A    between atoms: _187  and  _188
REMARK   73  A    between atoms: _187  and  _190
REMARK   74  A    between atoms: _190  and  _191
REMARK   75  A    between atoms: _196  and  _198
REMARK   76  A    between atoms: _198  and  _199
REMARK   77  A    between atoms: _198  and  _201
REMARK   78  A    between atoms: _201  and  _202
REMARK   79  A    between atoms: _202  and  _203
REMARK   80  A    between atoms: _203  and  _204
REMARK   81  A    between atoms: _213  and  _215
REMARK   82  A    between atoms: _215  and  _216
REMARK   83  A    between atoms: _215  and  _218
REMARK   84  A    between atoms: _218  and  _219
REMARK   85  A    between atoms: _222  and  _224
REMARK   86  A    between atoms: _224  and  _225
REMARK   87  A    between atoms: _224  and  _227
REMARK   88  A    between atoms: _230  and  _232
REMARK   89  A    between atoms: _232  and  _233
REMARK   90  A    between atoms: _235  and  _237
REMARK   91  A    between atoms: _237  and  _238
REMARK   92  A    between atoms: _237  and  _240
REMARK   93  A    between atoms: _240  and  _241
REMARK   94  A    between atoms: _241  and  _242
REMARK   95  A    between atoms: _242  and  _243
REMARK   96  A    between atoms: _252  and  _254
REMARK   97  A    between atoms: _254  and  _255
REMARK   98  A    between atoms: _254  and  _257
REMARK   99  A    between atoms: _257  and  _258
REMARK  100  A    between atoms: _263  and  _265
REMARK  101  A    between atoms: _265  and  _266
REMARK  102  A    between atoms: _265  and  _268
REMARK  103  A    between atoms: _268  and  _269
REMARK  104  A    between atoms: _272  and  _274
REMARK  105  A    between atoms: _274  and  _275
REMARK  106  A    between atoms: _274  and  _277
REMARK  107  A    between atoms: _277  and  _278
REMARK  108  A    between atoms: _281  and  _283
REMARK  109  A    between atoms: _283  and  _284
REMARK  110  A    between atoms: _286  and  _288
REMARK  111  A    between atoms: _288  and  _289
REMARK  112  A    between atoms: _291  and  _293
REMARK  113  A    between atoms: _293  and  _294
REMARK  114  A    between atoms: _293  and  _296
REMARK  115  A    between atoms: _296  and  _297
REMARK  116  A    between atoms: _299  and  _301
REMARK  117  A    between atoms: _301  and  _302
REMARK  118  A    between atoms: _301  and  _304
REMARK  119  A    between atoms: _304  and  _305
REMARK  120  A    between atoms: _308  and  _310
REMARK  121  A    between atoms: _310  and  _311
REMARK  122  A    between atoms: _310  and  _313
REMARK  123  A    between atoms: _313  and  _314
REMARK  124  A    between atoms: _316  and  _318
REMARK  125  A    between atoms: _318  and  _319
REMARK  126  A    between atoms: _318  and  _321
REMARK  127  A    between atoms: _321  and  _322
REMARK  128  A    between atoms: _324  and  _326
REMARK  129  A    between atoms: _326  and  _327
REMARK  130  A    between atoms: _326  and  _329
REMARK  131  A    between atoms: _329  and  _330
REMARK  132  A    between atoms: _330  and  _331
REMARK  133  A    between atoms: _334  and  _336
REMARK  134  A    between atoms: _336  and  _337
REMARK  135  A    between atoms: _336  and  _339
REMARK  136  A    between atoms: _339  and  _340
REMARK  137  A    between atoms: _340  and  _341
REMARK                            x       y       z     vdW  Elec       q    Type
REMARK                         _______ _______ _______ _____ _____    ______ ____
ROOT
ATOM      1  O   HOH     1      52.571 -47.473  76.296  0.00  0.00    +0.000 OA
ENDROOT
TORSDOF 0
REMARK  Name = ../refined-set-2016/4cp5/4cp5_pocket.pdb
REMARK  137 active torsions:
REMARK  status: ('A' for Active; 'I' for Inactive)
REMARK    1  A    between atoms: _1  and  _3
REMARK    2  A    between atoms: _3  and  _4
REMARK    3  A    between atoms: _7  and  _9
REMARK    4  A    between atoms: _9  and  _10
REMARK    5  A    between atoms: _9  and  _12
REMARK    6  A    between atoms: _12  and  _13
REMARK    7  A    between atoms: _13  and  _14
REMARK    8  A    between atoms: _14  and  _15
REMARK    9  A    between atoms: _15  and  _16
REMARK   10  A    between atoms: _20  and  _22
REMARK   11  A    between atoms: _22  and  _23
REMARK   12  A    between atoms: _22  and  _25
REMARK   13  A    between atoms: _25  and  _26
REMARK   14  A    between atoms: _31  and  _33
REMARK   15  A    between atoms: _33  and  _34
REMARK   16  A    between atoms: _33  and  _36
REMARK   17  A    between atoms: _36  and  _37
REMARK   18  A    between atoms: _42  and  _43
REMARK   19  A    between atoms: _45  and  _47
REMARK   20  A    between atoms: _47  and  _48
REMARK   21  A    between atoms: _47  and  _50
REMARK   22  A    between atoms: _51  and  _52
REMARK   23  A    between atoms: _55  and  _57
REMARK   24  A    between atoms: _57  and  _58
REMARK   25  A    between atoms: _57  and  _60
REMARK   26  A    between atoms: _60  and  _61
REMARK   27  A    between atoms: _66  and  _68
REMARK   28  A    between atoms: _68  and  _69
REMARK   29  A    between atoms: _68  and  _71
REMARK   30  A    between atoms: _71  and  _72
REMARK   31  A    between atoms: _72  and  _73
REMARK   32  A    between atoms: _73  and  _74
REMARK   33  A    between atoms: _84  and  _85
REMARK   34  A    between atoms: _90  and  _92
REMARK   35  A    between atoms: _92  and  _93
REMARK   36  A    between atoms: _92  and  _95
REMARK   37  A    between atoms: _95  and  _96
REMARK   38  A    between atoms: _102  and  _104
REMARK   39  A    between atoms: _104  and  _105
REMARK   40  A    between atoms: _104  and  _107
REMARK   41  A    between atoms: _107  and  _108
REMARK   42  A    between atoms: _114  and  _116
REMARK   43  A    between atoms: _116  and  _117
REMARK   44  A    between atoms: _119  and  _121
REMARK   45  A    between atoms: _121  and  _122
REMARK   46  A    between atoms: _121  and  _124
REMARK   47  A    between atoms: _124  and  _125
REMARK   48  A    between atoms: _128  and  _130
REMARK   49  A    between atoms: _130  and  _131
REMARK   50  A    between atoms: _130  and  _133
REMARK   51  A    between atoms: _133  and  _134
REMARK   52  A    between atoms: _137  and  _139
REMARK   53  A    between atoms: _139  and  _140
REMARK   54  A    between atoms: _139  and  _142
REMARK   55  A    between atoms: _142  and  _143
REMARK   56  A    between atoms: _143  and  _144
REMARK   57  A    between atoms: _144  and  _145
REMARK   58  A    between atoms: _154  and  _156
REMARK   59  A    between atoms: _156  and  _157
REMARK   60  A    between atoms: _156  and  _159
REMARK   61  A    between atoms: _159  and  _160
REMARK   62  A    between atoms: _163  and  _165
REMARK   63  A    between atoms: _165  and  _166
REMARK   64  A    between atoms: _168  and  _170
REMARK   65  A    between atoms: _170  and  _171
REMARK   66  A    between atoms: _170  and  _173
REMARK   67  A    between atoms: _176  and  _178
REMARK   68  A    between atoms: _178  and  _179
REMARK   69  A    between atoms: _178  and  _181
REMARK   70  A    between atoms: _181  and  _182
REMARK   71  A    between atoms: _185  and  _187
REMARK   72  A    between atoms: _187  and  _188
REMARK   73  A    between atoms: _187  and  _190
REMARK   74  A    between atoms: _190  and  _191
REMARK   75  A    between atoms: _196  and  _198
REMARK   76  A    between atoms: _198  and  _199
REMARK   77  A    between atoms: _198  and  _201
REMARK   78  A    between atoms: _201  and  _202
REMARK   79  A    between atoms: _202  and  _203
REMARK   80  A    between atoms: _203  and  _204
REMARK   81  A    between atoms: _213  and  _215
REMARK   82  A    between atoms: _215  and  _216
REMARK   83  A    between atoms: _215  and  _218
REMARK   84  A    between atoms: _218  and  _219
REMARK   85  A    between atoms: _222  and  _224
REMARK   86  A    between atoms: _224  and  _225
REMARK   87  A    between atoms: _224  and  _227
REMARK   88  A    between atoms: _230  and  _232
REMARK   89  A    between atoms: _232  and  _233
REMARK   90  A    between atoms: _235  and  _237
REMARK   91  A    between atoms: _237  and  _238
REMARK   92  A    between atoms: _237  and  _240
REMARK   93  A    between atoms: _240  and  _241
REMARK   94  A    between atoms: _241  and  _242
REMARK   95  A    between atoms: _242  and  _243
REMARK   96  A    between atoms: _252  and  _254
REMARK   97  A    between atoms: _254  and  _255
REMARK   98  A    between atoms: _254  and  _257
REMARK   99  A    between atoms: _257  and  _258
REMARK  100  A    between atoms: _263  and  _265
REMARK  101  A    between atoms: _265  and  _266
REMARK  102  A    between atoms: _265  and  _268
REMARK  103  A    between atoms: _268  and  _269
REMARK  104  A    between atoms: _272  and  _274
REMARK  105  A    between atoms: _274  and  _275
REMARK  106  A    between atoms: _274  and  _277
REMARK  107  A    between atoms: _277  and  _278
REMARK  108  A    between atoms: _281  and  _283
REMARK  109  A    between atoms: _283  and  _284
REMARK  110  A    between atoms: _286  and  _288
REMARK  111  A    between atoms: _288  and  _289
REMARK  112  A    between atoms: _291  and  _293
REMARK  113  A    between atoms: _293  and  _294
REMARK  114  A    between atoms: _293  and  _296
REMARK  115  A    between atoms: _296  and  _297
REMARK  116  A    between atoms: _299  and  _301
REMARK  117  A    between atoms: _301  and  _302
REMARK  118  A    between atoms: _301  and  _304
REMARK  119  A    between atoms: _304  and  _305
REMARK  120  A    between atoms: _308  and  _310
REMARK  121  A    between atoms: _310  and  _311
REMARK  122  A    between atoms: _310  and  _313
REMARK  123  A    between atoms: _313  and  _314
REMARK  124  A    between atoms: _316  and  _318
REMARK  125  A    between atoms: _318  and  _319
REMARK  126  A    between atoms: _318  and  _321
REMARK  127  A    between atoms: _321  and  _322
REMARK  128  A    between atoms: _324  and  _326
REMARK  129  A    between atoms: _326  and  _327
REMARK  130  A    between atoms: _326  and  _329
REMARK  131  A    between atoms: _329  and  _330
REMARK  132  A    between atoms: _330  and  _331
REMARK  133  A    between atoms: _334  and  _336
REMARK  134  A    between atoms: _336  and  _337
REMARK  135  A    between atoms: _336  and  _339
REMARK  136  A    between atoms: _339  and  _340
REMARK  137  A    between atoms: _340  and  _341
REMARK                            x       y       z     vdW  Elec       q    Type
REMARK                         _______ _______ _______ _____ _____    ______ ____
ROOT
ATOM      1  O   HOH     1      43.427 -44.430  74.500  0.00  0.00    +0.000 OA
ENDROOT
TORSDOF 0
REMARK  Name = ../refined-set-2016/4cp5/4cp5_pocket.pdb
REMARK  137 active torsions:
REMARK  status: ('A' for Active; 'I' for Inactive)
REMARK    1  A    between atoms: _1  and  _3
REMARK    2  A    between atoms: _3  and  _4
REMARK    3  A    between atoms: _7  and  _9
REMARK    4  A    between atoms: _9  and  _10
REMARK    5  A    between atoms: _9  and  _12
REMARK    6  A    between atoms: _12  and  _13
REMARK    7  A    between atoms: _13  and  _14
REMARK    8  A    between atoms: _14  and  _15
REMARK    9  A    between atoms: _15  and  _16
REMARK   10  A    between atoms: _20  and  _22
REMARK   11  A    between atoms: _22  and  _23
REMARK   12  A    between atoms: _22  and  _25
REMARK   13  A    between atoms: _25  and  _26
REMARK   14  A    between atoms: _31  and  _33
REMARK   15  A    between atoms: _33  and  _34
REMARK   16  A    between atoms: _33  and  _36
REMARK   17  A    between atoms: _36  and  _37
REMARK   18  A    between atoms: _42  and  _43
REMARK   19  A    between atoms: _45  and  _47
REMARK   20  A    between atoms: _47  and  _48
REMARK   21  A    between atoms: _47  and  _50
REMARK   22  A    between atoms: _51  and  _52
REMARK   23  A    between atoms: _55  and  _57
REMARK   24  A    between atoms: _57  and  _58
REMARK   25  A    between atoms: _57  and  _60
REMARK   26  A    between atoms: _60  and  _61
REMARK   27  A    between atoms: _66  and  _68
REMARK   28  A    between atoms: _68  and  _69
REMARK   29  A    between atoms: _68  and  _71
REMARK   30  A    between atoms: _71  and  _72
REMARK   31  A    between atoms: _72  and  _73
REMARK   32  A    between atoms: _73  and  _74
REMARK   33  A    between atoms: _84  and  _85
REMARK   34  A    between atoms: _90  and  _92
REMARK   35  A    between atoms: _92  and  _93
REMARK   36  A    between atoms: _92  and  _95
REMARK   37  A    between atoms: _95  and  _96
REMARK   38  A    between atoms: _102  and  _104
REMARK   39  A    between atoms: _104  and  _105
REMARK   40  A    between atoms: _104  and  _107
REMARK   41  A    between atoms: _107  and  _108
REMARK   42  A    between atoms: _114  and  _116
REMARK   43  A    between atoms: _116  and  _117
REMARK   44  A    between atoms: _119  and  _121
REMARK   45  A    between atoms: _121  and  _122
REMARK   46  A    between atoms: _121  and  _124
REMARK   47  A    between atoms: _124  and  _125
REMARK   48  A    between atoms: _128  and  _130
REMARK   49  A    between atoms: _130  and  _131
REMARK   50  A    between atoms: _130  and  _133
REMARK   51  A    between atoms: _133  and  _134
REMARK   52  A    between atoms: _137  and  _139
REMARK   53  A    between atoms: _139  and  _140
REMARK   54  A    between atoms: _139  and  _142
REMARK   55  A    between atoms: _142  and  _143
REMARK   56  A    between atoms: _143  and  _144
REMARK   57  A    between atoms: _144  and  _145
REMARK   58  A    between atoms: _154  and  _156
REMARK   59  A    between atoms: _156  and  _157
REMARK   60  A    between atoms: _156  and  _159
REMARK   61  A    between atoms: _159  and  _160
REMARK   62  A    between atoms: _163  and  _165
REMARK   63  A    between atoms: _165  and  _166
REMARK   64  A    between atoms: _168  and  _170
REMARK   65  A    between atoms: _170  and  _171
REMARK   66  A    between atoms: _170  and  _173
REMARK   67  A    between atoms: _176  and  _178
REMARK   68  A    between atoms: _178  and  _179
REMARK   69  A    between atoms: _178  and  _181
REMARK   70  A    between atoms: _181  and  _182
REMARK   71  A    between atoms: _185  and  _187
REMARK   72  A    between atoms: _187  and  _188
REMARK   73  A    between atoms: _187  and  _190
REMARK   74  A    between atoms: _190  and  _191
REMARK   75  A    between atoms: _196  and  _198
REMARK   76  A    between atoms: _198  and  _199
REMARK   77  A    between atoms: _198  and  _201
REMARK   78  A    between atoms: _201  and  _202
REMARK   79  A    between atoms: _202  and  _203
REMARK   80  A    between atoms: _203  and  _204
REMARK   81  A    between atoms: _213  and  _215
REMARK   82  A    between atoms: _215  and  _216
REMARK   83  A    between atoms: _215  and  _218
REMARK   84  A    between atoms: _218  and  _219
REMARK   85  A    between atoms: _222  and  _224
REMARK   86  A    between atoms: _224  and  _225
REMARK   87  A    between atoms: _224  and  _227
REMARK   88  A    between atoms: _230  and  _232
REMARK   89  A    between atoms: _232  and  _233
REMARK   90  A    between atoms: _235  and  _237
REMARK   91  A    between atoms: _237  and  _238
REMARK   92  A    between atoms: _237  and  _240
REMARK   93  A    between atoms: _240  and  _241
REMARK   94  A    between atoms: _241  and  _242
REMARK   95  A    between atoms: _242  and  _243
REMARK   96  A    between atoms: _252  and  _254
REMARK   97  A    between atoms: _254  and  _255
REMARK   98  A    between atoms: _254  and  _257
REMARK   99  A    between atoms: _257  and  _258
REMARK  100  A    between atoms: _263  and  _265
REMARK  101  A    between atoms: _265  and  _266
REMARK  102  A    between atoms: _265  and  _268
REMARK  103  A    between atoms: _268  and  _269
REMARK  104  A    between atoms: _272  and  _274
REMARK  105  A    between atoms: _274  and  _275
REMARK  106  A    between atoms: _274  and  _277
REMARK  107  A    between atoms: _277  and  _278
REMARK  108  A    between atoms: _281  and  _283
REMARK  109  A    between atoms: _283  and  _284
REMARK  110  A    between atoms: _286  and  _288
REMARK  111  A    between atoms: _288  and  _289
REMARK  112  A    between atoms: _291  and  _293
REMARK  113  A    between atoms: _293  and  _294
REMARK  114  A    between atoms: _293  and  _296
REMARK  115  A    between atoms: _296  and  _297
REMARK  116  A    between atoms: _299  and  _301
REMARK  117  A    between atoms: _301  and  _302
REMARK  118  A    between atoms: _301  and  _304
REMARK  119  A    between atoms: _304  and  _305
REMARK  120  A    between atoms: _308  and  _310
REMARK  121  A    between atoms: _310  and  _311
REMARK  122  A    between atoms: _310  and  _313
REMARK  123  A    between atoms: _313  and  _314
REMARK  124  A    between atoms: _316  and  _318
REMARK  125  A    between atoms: _318  and  _319
REMARK  126  A    between atoms: _318  and  _321
REMARK  127  A    between atoms: _321  and  _322
REMARK  128  A    between atoms: _324  and  _326
REMARK  129  A    between atoms: _326  and  _327
REMARK  130  A    between atoms: _326  and  _329
REMARK  131  A    between atoms: _329  and  _330
REMARK  132  A    between atoms: _330  and  _331
REMARK  133  A    between atoms: _334  and  _336
REMARK  134  A    between atoms: _336  and  _337
REMARK  135  A    between atoms: _336  and  _339
REMARK  136  A    between atoms: _339  and  _340
REMARK  137  A    between atoms: _340  and  _341
REMARK                            x       y       z     vdW  Elec       q    Type
REMARK                         _______ _______ _______ _____ _____    ______ ____
ROOT
ATOM      1  O   HOH     1      39.587 -53.645  75.780  0.00  0.00    +0.000 OA
ENDROOT
TORSDOF 0
REMARK  Name = ../refined-set-2016/4cp5/4cp5_pocket.pdb
REMARK  137 active torsions:
REMARK  status: ('A' for Active; 'I' for Inactive)
REMARK    1  A    between atoms: _1  and  _3
REMARK    2  A    between atoms: _3  and  _4
REMARK    3  A    between atoms: _7  and  _9
REMARK    4  A    between atoms: _9  and  _10
REMARK    5  A    between atoms: _9  and  _12
REMARK    6  A    between atoms: _12  and  _13
REMARK    7  A    between atoms: _13  and  _14
REMARK    8  A    between atoms: _14  and  _15
REMARK    9  A    between atoms: _15  and  _16
REMARK   10  A    between atoms: _20  and  _22
REMARK   11  A    between atoms: _22  and  _23
REMARK   12  A    between atoms: _22  and  _25
REMARK   13  A    between atoms: _25  and  _26
REMARK   14  A    between atoms: _31  and  _33
REMARK   15  A    between atoms: _33  and  _34
REMARK   16  A    between atoms: _33  and  _36
REMARK   17  A    between atoms: _36  and  _37
REMARK   18  A    between atoms: _42  and  _43
REMARK   19  A    between atoms: _45  and  _47
REMARK   20  A    between atoms: _47  and  _48
REMARK   21  A    between atoms: _47  and  _50
REMARK   22  A    between atoms: _51  and  _52
REMARK   23  A    between atoms: _55  and  _57
REMARK   24  A    between atoms: _57  and  _58
REMARK   25  A    between atoms: _57  and  _60
REMARK   26  A    between atoms: _60  and  _61
REMARK   27  A    between atoms: _66  and  _68
REMARK   28  A    between atoms: _68  and  _69
REMARK   29  A    between atoms: _68  and  _71
REMARK   30  A    between atoms: _71  and  _72
REMARK   31  A    between atoms: _72  and  _73
REMARK   32  A    between atoms: _73  and  _74
REMARK   33  A    between atoms: _84  and  _85
REMARK   34  A    between atoms: _90  and  _92
REMARK   35  A    between atoms: _92  and  _93
REMARK   36  A    between atoms: _92  and  _95
REMARK   37  A    between atoms: _95  and  _96
REMARK   38  A    between atoms: _102  and  _104
REMARK   39  A    between atoms: _104  and  _105
REMARK   40  A    between atoms: _104  and  _107
REMARK   41  A    between atoms: _107  and  _108
REMARK   42  A    between atoms: _114  and  _116
REMARK   43  A    between atoms: _116  and  _117
REMARK   44  A    between atoms: _119  and  _121
REMARK   45  A    between atoms: _121  and  _122
REMARK   46  A    between atoms: _121  and  _124
REMARK   47  A    between atoms: _124  and  _125
REMARK   48  A    between atoms: _128  and  _130
REMARK   49  A    between atoms: _130  and  _131
REMARK   50  A    between atoms: _130  and  _133
REMARK   51  A    between atoms: _133  and  _134
REMARK   52  A    between atoms: _137  and  _139
REMARK   53  A    between atoms: _139  and  _140
REMARK   54  A    between atoms: _139  and  _142
REMARK   55  A    between atoms: _142  and  _143
REMARK   56  A    between atoms: _143  and  _144
REMARK   57  A    between atoms: _144  and  _145
REMARK   58  A    between atoms: _154  and  _156
REMARK   59  A    between atoms: _156  and  _157
REMARK   60  A    between atoms: _156  and  _159
REMARK   61  A    between atoms: _159  and  _160
REMARK   62  A    between atoms: _163  and  _165
REMARK   63  A    between atoms: _165  and  _166
REMARK   64  A    between atoms: _168  and  _170
REMARK   65  A    between atoms: _170  and  _171
REMARK   66  A    between atoms: _170  and  _173
REMARK   67  A    between atoms: _176  and  _178
REMARK   68  A    between atoms: _178  and  _179
REMARK   69  A    between atoms: _178  and  _181
REMARK   70  A    between atoms: _181  and  _182
REMARK   71  A    between atoms: _185  and  _187
REMARK   72  A    between atoms: _187  and  _188
REMARK   73  A    between atoms: _187  and  _190
REMARK   74  A    between atoms: _190  and  _191
REMARK   75  A    between atoms: _196  and  _198
REMARK   76  A    between atoms: _198  and  _199
REMARK   77  A    between atoms: _198  and  _201
REMARK   78  A    between atoms: _201  and  _202
REMARK   79  A    between atoms: _202  and  _203
REMARK   80  A    between atoms: _203  and  _204
REMARK   81  A    between atoms: _213  and  _215
REMARK   82  A    between atoms: _215  and  _216
REMARK   83  A    between atoms: _215  and  _218
REMARK   84  A    between atoms: _218  and  _219
REMARK   85  A    between atoms: _222  and  _224
REMARK   86  A    between atoms: _224  and  _225
REMARK   87  A    between atoms: _224  and  _227
REMARK   88  A    between atoms: _230  and  _232
REMARK   89  A    between atoms: _232  and  _233
REMARK   90  A    between atoms: _235  and  _237
REMARK   91  A    between atoms: _237  and  _238
REMARK   92  A    between atoms: _237  and  _240
REMARK   93  A    between atoms: _240  and  _241
REMARK   94  A    between atoms: _241  and  _242
REMARK   95  A    between atoms: _242  and  _243
REMARK   96  A    between atoms: _252  and  _254
REMARK   97  A    between atoms: _254  and  _255
REMARK   98  A    between atoms: _254  and  _257
REMARK   99  A    between atoms: _257  and  _258
REMARK  100  A    between atoms: _263  and  _265
REMARK  101  A    between atoms: _265  and  _266
REMARK  102  A    between atoms: _265  and  _268
REMARK  103  A    between atoms: _268  and  _269
REMARK  104  A    between atoms: _272  and  _274
REMARK  105  A    between atoms: _274  and  _275
REMARK  106  A    between atoms: _274  and  _277
REMARK  107  A    between atoms: _277  and  _278
REMARK  108  A    between atoms: _281  and  _283
REMARK  109  A    between atoms: _283  and  _284
REMARK  110  A    between atoms: _286  and  _288
REMARK  111  A    between atoms: _288  and  _289
REMARK  112  A    between atoms: _291  and  _293
REMARK  113  A    between atoms: _293  and  _294
REMARK  114  A    between atoms: _293  and  _296
REMARK  115  A    between atoms: _296  and  _297
REMARK  116  A    between atoms: _299  and  _301
REMARK  117  A    between atoms: _301  and  _302
REMARK  118  A    between atoms: _301  and  _304
REMARK  119  A    between atoms: _304  and  _305
REMARK  120  A    between atoms: _308  and  _310
REMARK  121  A    between atoms: _310  and  _311
REMARK  122  A    between atoms: _310  and  _313
REMARK  123  A    between atoms: _313  and  _314
REMARK  124  A    between atoms: _316  and  _318
REMARK  125  A    between atoms: _318  and  _319
REMARK  126  A    between atoms: _318  and  _321
REMARK  127  A    between atoms: _321  and  _322
REMARK  128  A    between atoms: _324  and  _326
REMARK  129  A    between atoms: _326  and  _327
REMARK  130  A    between atoms: _326  and  _329
REMARK  131  A    between atoms: _329  and  _330
REMARK  132  A    between atoms: _330  and  _331
REMARK  133  A    between atoms: _334  and  _336
REMARK  134  A    between atoms: _336  and  _337
REMARK  135  A    between atoms: _336  and  _339
REMARK  136  A    between atoms: _339  and  _340
REMARK  137  A    between atoms: _340  and  _341
REMARK                            x       y       z     vdW  Elec       q    Type
REMARK                         _______ _______ _______ _____ _____    ______ ____
ROOT
ATOM      1  O   HOH     1      43.994 -49.633  76.211  0.00  0.00    +0.000 OA
ENDROOT
TORSDOF 0
REMARK  Name = ../refined-set-2016/4cp5/4cp5_pocket.pdb
REMARK  137 active torsions:
REMARK  status: ('A' for Active; 'I' for Inactive)
REMARK    1  A    between atoms: _1  and  _3
REMARK    2  A    between atoms: _3  and  _4
REMARK    3  A    between atoms: _7  and  _9
REMARK    4  A    between atoms: _9  and  _10
REMARK    5  A    between atoms: _9  and  _12
REMARK    6  A    between atoms: _12  and  _13
REMARK    7  A    between atoms: _13  and  _14
REMARK    8  A    between atoms: _14  and  _15
REMARK    9  A    between atoms: _15  and  _16
REMARK   10  A    between atoms: _20  and  _22
REMARK   11  A    between atoms: _22  and  _23
REMARK   12  A    between atoms: _22  and  _25
REMARK   13  A    between atoms: _25  and  _26
REMARK   14  A    between atoms: _31  and  _33
REMARK   15  A    between atoms: _33  and  _34
REMARK   16  A    between atoms: _33  and  _36
REMARK   17  A    between atoms: _36  and  _37
REMARK   18  A    between atoms: _42  and  _43
REMARK   19  A    between atoms: _45  and  _47
REMARK   20  A    between atoms: _47  and  _48
REMARK   21  A    between atoms: _47  and  _50
REMARK   22  A    between atoms: _51  and  _52
REMARK   23  A    between atoms: _55  and  _57
REMARK   24  A    between atoms: _57  and  _58
REMARK   25  A    between atoms: _57  and  _60
REMARK   26  A    between atoms: _60  and  _61
REMARK   27  A    between atoms: _66  and  _68
REMARK   28  A    between atoms: _68  and  _69
REMARK   29  A    between atoms: _68  and  _71
REMARK   30  A    between atoms: _71  and  _72
REMARK   31  A    between atoms: _72  and  _73
REMARK   32  A    between atoms: _73  and  _74
REMARK   33  A    between atoms: _84  and  _85
REMARK   34  A    between atoms: _90  and  _92
REMARK   35  A    between atoms: _92  and  _93
REMARK   36  A    between atoms: _92  and  _95
REMARK   37  A    between atoms: _95  and  _96
REMARK   38  A    between atoms: _102  and  _104
REMARK   39  A    between atoms: _104  and  _105
REMARK   40  A    between atoms: _104  and  _107
REMARK   41  A    between atoms: _107  and  _108
REMARK   42  A    between atoms: _114  and  _116
REMARK   43  A    between atoms: _116  and  _117
REMARK   44  A    between atoms: _119  and  _121
REMARK   45  A    between atoms: _121  and  _122
REMARK   46  A    between atoms: _121  and  _124
REMARK   47  A    between atoms: _124  and  _125
REMARK   48  A    between atoms: _128  and  _130
REMARK   49  A    between atoms: _130  and  _131
REMARK   50  A    between atoms: _130  and  _133
REMARK   51  A    between atoms: _133  and  _134
REMARK   52  A    between atoms: _137  and  _139
REMARK   53  A    between atoms: _139  and  _140
REMARK   54  A    between atoms: _139  and  _142
REMARK   55  A    between atoms: _142  and  _143
REMARK   56  A    between atoms: _143  and  _144
REMARK   57  A    between atoms: _144  and  _145
REMARK   58  A    between atoms: _154  and  _156
REMARK   59  A    between atoms: _156  and  _157
REMARK   60  A    between atoms: _156  and  _159
REMARK   61  A    between atoms: _159  and  _160
REMARK   62  A    between atoms: _163  and  _165
REMARK   63  A    between atoms: _165  and  _166
REMARK   64  A    between atoms: _168  and  _170
REMARK   65  A    between atoms: _170  and  _171
REMARK   66  A    between atoms: _170  and  _173
REMARK   67  A    between atoms: _176  and  _178
REMARK   68  A    between atoms: _178  and  _179
REMARK   69  A    between atoms: _178  and  _181
REMARK   70  A    between atoms: _181  and  _182
REMARK   71  A    between atoms: _185  and  _187
REMARK   72  A    between atoms: _187  and  _188
REMARK   73  A    between atoms: _187  and  _190
REMARK   74  A    between atoms: _190  and  _191
REMARK   75  A    between atoms: _196  and  _198
REMARK   76  A    between atoms: _198  and  _199
REMARK   77  A    between atoms: _198  and  _201
REMARK   78  A    between atoms: _201  and  _202
REMARK   79  A    between atoms: _202  and  _203
REMARK   80  A    between atoms: _203  and  _204
REMARK   81  A    between atoms: _213  and  _215
REMARK   82  A    between atoms: _215  and  _216
REMARK   83  A    between atoms: _215  and  _218
REMARK   84  A    between atoms: _218  and  _219
REMARK   85  A    between atoms: _222  and  _224
REMARK   86  A    between atoms: _224  and  _225
REMARK   87  A    between atoms: _224  and  _227
REMARK   88  A    between atoms: _230  and  _232
REMARK   89  A    between atoms: _232  and  _233
REMARK   90  A    between atoms: _235  and  _237
REMARK   91  A    between atoms: _237  and  _238
REMARK   92  A    between atoms: _237  and  _240
REMARK   93  A    between atoms: _240  and  _241
REMARK   94  A    between atoms: _241  and  _242
REMARK   95  A    between atoms: _242  and  _243
REMARK   96  A    between atoms: _252  and  _254
REMARK   97  A    between atoms: _254  and  _255
REMARK   98  A    between atoms: _254  and  _257
REMARK   99  A    between atoms: _257  and  _258
REMARK  100  A    between atoms: _263  and  _265
REMARK  101  A    between atoms: _265  and  _266
REMARK  102  A    between atoms: _265  and  _268
REMARK  103  A    between atoms: _268  and  _269
REMARK  104  A    between atoms: _272  and  _274
REMARK  105  A    between atoms: _274  and  _275
REMARK  106  A    between atoms: _274  and  _277
REMARK  107  A    between atoms: _277  and  _278
REMARK  108  A    between atoms: _281  and  _283
REMARK  109  A    between atoms: _283  and  _284
REMARK  110  A    between atoms: _286  and  _288
REMARK  111  A    between atoms: _288  and  _289
REMARK  112  A    between atoms: _291  and  _293
REMARK  113  A    between atoms: _293  and  _294
REMARK  114  A    between atoms: _293  and  _296
REMARK  115  A    between atoms: _296  and  _297
REMARK  116  A    between atoms: _299  and  _301
REMARK  117  A    between atoms: _301  and  _302
REMARK  118  A    between atoms: _301  and  _304
REMARK  119  A    between atoms: _304  and  _305
REMARK  120  A    between atoms: _308  and  _310
REMARK  121  A    between atoms: _310  and  _311
REMARK  122  A    between atoms: _310  and  _313
REMARK  123  A    between atoms: _313  and  _314
REMARK  124  A    between atoms: _316  and  _318
REMARK  125  A    between atoms: _318  and  _319
REMARK  126  A    between atoms: _318  and  _321
REMARK  127  A    between atoms: _321  and  _322
REMARK  128  A    between atoms: _324  and  _326
REMARK  129  A    between atoms: _326  and  _327
REMARK  130  A    between atoms: _326  and  _329
REMARK  131  A    between atoms: _329  and  _330
REMARK  132  A    between atoms: _330  and  _331
REMARK  133  A    between atoms: _334  and  _336
REMARK  134  A    between atoms: _336  and  _337
REMARK  135  A    between atoms: _336  and  _339
REMARK  136  A    between atoms: _339  and  _340
REMARK  137  A    between atoms: _340  and  _341
REMARK                            x       y       z     vdW  Elec       q    Type
REMARK                         _______ _______ _______ _____ _____    ______ ____
ROOT
ATOM      1  O   HOH     1      48.258 -53.983  70.910  0.00  0.00    +0.000 OA
ENDROOT
TORSDOF 0
REMARK  Name = ../refined-set-2016/4cp5/4cp5_pocket.pdb
REMARK  137 active torsions:
REMARK  status: ('A' for Active; 'I' for Inactive)
REMARK    1  A    between atoms: _1  and  _3
REMARK    2  A    between atoms: _3  and  _4
REMARK    3  A    between atoms: _7  and  _9
REMARK    4  A    between atoms: _9  and  _10
REMARK    5  A    between atoms: _9  and  _12
REMARK    6  A    between atoms: _12  and  _13
REMARK    7  A    between atoms: _13  and  _14
REMARK    8  A    between atoms: _14  and  _15
REMARK    9  A    between atoms: _15  and  _16
REMARK   10  A    between atoms: _20  and  _22
REMARK   11  A    between atoms: _22  and  _23
REMARK   12  A    between atoms: _22  and  _25
REMARK   13  A    between atoms: _25  and  _26
REMARK   14  A    between atoms: _31  and  _33
REMARK   15  A    between atoms: _33  and  _34
REMARK   16  A    between atoms: _33  and  _36
REMARK   17  A    between atoms: _36  and  _37
REMARK   18  A    between atoms: _42  and  _43
REMARK   19  A    between atoms: _45  and  _47
REMARK   20  A    between atoms: _47  and  _48
REMARK   21  A    between atoms: _47  and  _50
REMARK   22  A    between atoms: _51  and  _52
REMARK   23  A    between atoms: _55  and  _57
REMARK   24  A    between atoms: _57  and  _58
REMARK   25  A    between atoms: _57  and  _60
REMARK   26  A    between atoms: _60  and  _61
REMARK   27  A    between atoms: _66  and  _68
REMARK   28  A    between atoms: _68  and  _69
REMARK   29  A    between atoms: _68  and  _71
REMARK   30  A    between atoms: _71  and  _72
REMARK   31  A    between atoms: _72  and  _73
REMARK   32  A    between atoms: _73  and  _74
REMARK   33  A    between atoms: _84  and  _85
REMARK   34  A    between atoms: _90  and  _92
REMARK   35  A    between atoms: _92  and  _93
REMARK   36  A    between atoms: _92  and  _95
REMARK   37  A    between atoms: _95  and  _96
REMARK   38  A    between atoms: _102  and  _104
REMARK   39  A    between atoms: _104  and  _105
REMARK   40  A    between atoms: _104  and  _107
REMARK   41  A    between atoms: _107  and  _108
REMARK   42  A    between atoms: _114  and  _116
REMARK   43  A    between atoms: _116  and  _117
REMARK   44  A    between atoms: _119  and  _121
REMARK   45  A    between atoms: _121  and  _122
REMARK   46  A    between atoms: _121  and  _124
REMARK   47  A    between atoms: _124  and  _125
REMARK   48  A    between atoms: _128  and  _130
REMARK   49  A    between atoms: _130  and  _131
REMARK   50  A    between atoms: _130  and  _133
REMARK   51  A    between atoms: _133  and  _134
REMARK   52  A    between atoms: _137  and  _139
REMARK   53  A    between atoms: _139  and  _140
REMARK   54  A    between atoms: _139  and  _142
REMARK   55  A    between atoms: _142  and  _143
REMARK   56  A    between atoms: _143  and  _144
REMARK   57  A    between atoms: _144  and  _145
REMARK   58  A    between atoms: _154  and  _156
REMARK   59  A    between atoms: _156  and  _157
REMARK   60  A    between atoms: _156  and  _159
REMARK   61  A    between atoms: _159  and  _160
REMARK   62  A    between atoms: _163  and  _165
REMARK   63  A    between atoms: _165  and  _166
REMARK   64  A    between atoms: _168  and  _170
REMARK   65  A    between atoms: _170  and  _171
REMARK   66  A    between atoms: _170  and  _173
REMARK   67  A    between atoms: _176  and  _178
REMARK   68  A    between atoms: _178  and  _179
REMARK   69  A    between atoms: _178  and  _181
REMARK   70  A    between atoms: _181  and  _182
REMARK   71  A    between atoms: _185  and  _187
REMARK   72  A    between atoms: _187  and  _188
REMARK   73  A    between atoms: _187  and  _190
REMARK   74  A    between atoms: _190  and  _191
REMARK   75  A    between atoms: _196  and  _198
REMARK   76  A    between atoms: _198  and  _199
REMARK   77  A    between atoms: _198  and  _201
REMARK   78  A    between atoms: _201  and  _202
REMARK   79  A    between atoms: _202  and  _203
REMARK   80  A    between atoms: _203  and  _204
REMARK   81  A    between atoms: _213  and  _215
REMARK   82  A    between atoms: _215  and  _216
REMARK   83  A    between atoms: _215  and  _218
REMARK   84  A    between atoms: _218  and  _219
REMARK   85  A    between atoms: _222  and  _224
REMARK   86  A    between atoms: _224  and  _225
REMARK   87  A    between atoms: _224  and  _227
REMARK   88  A    between atoms: _230  and  _232
REMARK   89  A    between atoms: _232  and  _233
REMARK   90  A    between atoms: _235  and  _237
REMARK   91  A    between atoms: _237  and  _238
REMARK   92  A    between atoms: _237  and  _240
REMARK   93  A    between atoms: _240  and  _241
REMARK   94  A    between atoms: _241  and  _242
REMARK   95  A    between atoms: _242  and  _243
REMARK   96  A    between atoms: _252  and  _254
REMARK   97  A    between atoms: _254  and  _255
REMARK   98  A    between atoms: _254  and  _257
REMARK   99  A    between atoms: _257  and  _258
REMARK  100  A    between atoms: _263  and  _265
REMARK  101  A    between atoms: _265  and  _266
REMARK  102  A    between atoms: _265  and  _268
REMARK  103  A    between atoms: _268  and  _269
REMARK  104  A    between atoms: _272  and  _274
REMARK  105  A    between atoms: _274  and  _275
REMARK  106  A    between atoms: _274  and  _277
REMARK  107  A    between atoms: _277  and  _278
REMARK  108  A    between atoms: _281  and  _283
REMARK  109  A    between atoms: _283  and  _284
REMARK  110  A    between atoms: _286  and  _288
REMARK  111  A    between atoms: _288  and  _289
REMARK  112  A    between atoms: _291  and  _293
REMARK  113  A    between atoms: _293  and  _294
REMARK  114  A    between atoms: _293  and  _296
REMARK  115  A    between atoms: _296  and  _297
REMARK  116  A    between atoms: _299  and  _301
REMARK  117  A    between atoms: _301  and  _302
REMARK  118  A    between atoms: _301  and  _304
REMARK  119  A    between atoms: _304  and  _305
REMARK  120  A    between atoms: _308  and  _310
REMARK  121  A    between atoms: _310  and  _311
REMARK  122  A    between atoms: _310  and  _313
REMARK  123  A    between atoms: _313  and  _314
REMARK  124  A    between atoms: _316  and  _318
REMARK  125  A    between atoms: _318  and  _319
REMARK  126  A    between atoms: _318  and  _321
REMARK  127  A    between atoms: _321  and  _322
REMARK  128  A    between atoms: _324  and  _326
REMARK  129  A    between atoms: _326  and  _327
REMARK  130  A    between atoms: _326  and  _329
REMARK  131  A    between atoms: _329  and  _330
REMARK  132  A    between atoms: _330  and  _331
REMARK  133  A    between atoms: _334  and  _336
REMARK  134  A    between atoms: _336  and  _337
REMARK  135  A    between atoms: _336  and  _339
REMARK  136  A    between atoms: _339  and  _340
REMARK  137  A    between atoms: _340  and  _341
REMARK                            x       y       z     vdW  Elec       q    Type
REMARK                         _______ _______ _______ _____ _____    ______ ____
ROOT
ATOM      1  O   HOH     1      60.850 -49.900  74.645  0.00  0.00    +0.000 OA
ENDROOT
TORSDOF 0
REMARK  Name = ../refined-set-2016/4cp5/4cp5_pocket.pdb
REMARK  137 active torsions:
REMARK  status: ('A' for Active; 'I' for Inactive)
REMARK    1  A    between atoms: _1  and  _3
REMARK    2  A    between atoms: _3  and  _4
REMARK    3  A    between atoms: _7  and  _9
REMARK    4  A    between atoms: _9  and  _10
REMARK    5  A    between atoms: _9  and  _12
REMARK    6  A    between atoms: _12  and  _13
REMARK    7  A    between atoms: _13  and  _14
REMARK    8  A    between atoms: _14  and  _15
REMARK    9  A    between atoms: _15  and  _16
REMARK   10  A    between atoms: _20  and  _22
REMARK   11  A    between atoms: _22  and  _23
REMARK   12  A    between atoms: _22  and  _25
REMARK   13  A    between atoms: _25  and  _26
REMARK   14  A    between atoms: _31  and  _33
REMARK   15  A    between atoms: _33  and  _34
REMARK   16  A    between atoms: _33  and  _36
REMARK   17  A    between atoms: _36  and  _37
REMARK   18  A    between atoms: _42  and  _43
REMARK   19  A    between atoms: _45  and  _47
REMARK   20  A    between atoms: _47  and  _48
REMARK   21  A    between atoms: _47  and  _50
REMARK   22  A    between atoms: _51  and  _52
REMARK   23  A    between atoms: _55  and  _57
REMARK   24  A    between atoms: _57  and  _58
REMARK   25  A    between atoms: _57  and  _60
REMARK   26  A    between atoms: _60  and  _61
REMARK   27  A    between atoms: _66  and  _68
REMARK   28  A    between atoms: _68  and  _69
REMARK   29  A    between atoms: _68  and  _71
REMARK   30  A    between atoms: _71  and  _72
REMARK   31  A    between atoms: _72  and  _73
REMARK   32  A    between atoms: _73  and  _74
REMARK   33  A    between atoms: _84  and  _85
REMARK   34  A    between atoms: _90  and  _92
REMARK   35  A    between atoms: _92  and  _93
REMARK   36  A    between atoms: _92  and  _95
REMARK   37  A    between atoms: _95  and  _96
REMARK   38  A    between atoms: _102  and  _104
REMARK   39  A    between atoms: _104  and  _105
REMARK   40  A    between atoms: _104  and  _107
REMARK   41  A    between atoms: _107  and  _108
REMARK   42  A    between atoms: _114  and  _116
REMARK   43  A    between atoms: _116  and  _117
REMARK   44  A    between atoms: _119  and  _121
REMARK   45  A    between atoms: _121  and  _122
REMARK   46  A    between atoms: _121  and  _124
REMARK   47  A    between atoms: _124  and  _125
REMARK   48  A    between atoms: _128  and  _130
REMARK   49  A    between atoms: _130  and  _131
REMARK   50  A    between atoms: _130  and  _133
REMARK   51  A    between atoms: _133  and  _134
REMARK   52  A    between atoms: _137  and  _139
REMARK   53  A    between atoms: _139  and  _140
REMARK   54  A    between atoms: _139  and  _142
REMARK   55  A    between atoms: _142  and  _143
REMARK   56  A    between atoms: _143  and  _144
REMARK   57  A    between atoms: _144  and  _145
REMARK   58  A    between atoms: _154  and  _156
REMARK   59  A    between atoms: _156  and  _157
REMARK   60  A    between atoms: _156  and  _159
REMARK   61  A    between atoms: _159  and  _160
REMARK   62  A    between atoms: _163  and  _165
REMARK   63  A    between atoms: _165  and  _166
REMARK   64  A    between atoms: _168  and  _170
REMARK   65  A    between atoms: _170  and  _171
REMARK   66  A    between atoms: _170  and  _173
REMARK   67  A    between atoms: _176  and  _178
REMARK   68  A    between atoms: _178  and  _179
REMARK   69  A    between atoms: _178  and  _181
REMARK   70  A    between atoms: _181  and  _182
REMARK   71  A    between atoms: _185  and  _187
REMARK   72  A    between atoms: _187  and  _188
REMARK   73  A    between atoms: _187  and  _190
REMARK   74  A    between atoms: _190  and  _191
REMARK   75  A    between atoms: _196  and  _198
REMARK   76  A    between atoms: _198  and  _199
REMARK   77  A    between atoms: _198  and  _201
REMARK   78  A    between atoms: _201  and  _202
REMARK   79  A    between atoms: _202  and  _203
REMARK   80  A    between atoms: _203  and  _204
REMARK   81  A    between atoms: _213  and  _215
REMARK   82  A    between atoms: _215  and  _216
REMARK   83  A    between atoms: _215  and  _218
REMARK   84  A    between atoms: _218  and  _219
REMARK   85  A    between atoms: _222  and  _224
REMARK   86  A    between atoms: _224  and  _225
REMARK   87  A    between atoms: _224  and  _227
REMARK   88  A    between atoms: _230  and  _232
REMARK   89  A    between atoms: _232  and  _233
REMARK   90  A    between atoms: _235  and  _237
REMARK   91  A    between atoms: _237  and  _238
REMARK   92  A    between atoms: _237  and  _240
REMARK   93  A    between atoms: _240  and  _241
REMARK   94  A    between atoms: _241  and  _242
REMARK   95  A    between atoms: _242  and  _243
REMARK   96  A    between atoms: _252  and  _254
REMARK   97  A    between atoms: _254  and  _255
REMARK   98  A    between atoms: _254  and  _257
REMARK   99  A    between atoms: _257  and  _258
REMARK  100  A    between atoms: _263  and  _265
REMARK  101  A    between atoms: _265  and  _266
REMARK  102  A    between atoms: _265  and  _268
REMARK  103  A    between atoms: _268  and  _269
REMARK  104  A    between atoms: _272  and  _274
REMARK  105  A    between atoms: _274  and  _275
REMARK  106  A    between atoms: _274  and  _277
REMARK  107  A    between atoms: _277  and  _278
REMARK  108  A    between atoms: _281  and  _283
REMARK  109  A    between atoms: _283  and  _284
REMARK  110  A    between atoms: _286  and  _288
REMARK  111  A    between atoms: _288  and  _289
REMARK  112  A    between atoms: _291  and  _293
REMARK  113  A    between atoms: _293  and  _294
REMARK  114  A    between atoms: _293  and  _296
REMARK  115  A    between atoms: _296  and  _297
REMARK  116  A    between atoms: _299  and  _301
REMARK  117  A    between atoms: _301  and  _302
REMARK  118  A    between atoms: _301  and  _304
REMARK  119  A    between atoms: _304  and  _305
REMARK  120  A    between atoms: _308  and  _310
REMARK  121  A    between atoms: _310  and  _311
REMARK  122  A    between atoms: _310  and  _313
REMARK  123  A    between atoms: _313  and  _314
REMARK  124  A    between atoms: _316  and  _318
REMARK  125  A    between atoms: _318  and  _319
REMARK  126  A    between atoms: _318  and  _321
REMARK  127  A    between atoms: _321  and  _322
REMARK  128  A    between atoms: _324  and  _326
REMARK  129  A    between atoms: _326  and  _327
REMARK  130  A    between atoms: _326  and  _329
REMARK  131  A    between atoms: _329  and  _330
REMARK  132  A    between atoms: _330  and  _331
REMARK  133  A    between atoms: _334  and  _336
REMARK  134  A    between atoms: _336  and  _337
REMARK  135  A    between atoms: _336  and  _339
REMARK  136  A    between atoms: _339  and  _340
REMARK  137  A    between atoms: _340  and  _341
REMARK                            x       y       z     vdW  Elec       q    Type
REMARK                         _______ _______ _______ _____ _____    ______ ____
ROOT
ATOM      1  O   HOH     1      43.398 -47.521  74.625  0.00  0.00    +0.000 OA
ENDROOT
TORSDOF 0
REMARK  Name = ../refined-set-2016/4cp5/4cp5_pocket.pdb
REMARK  137 active torsions:
REMARK  status: ('A' for Active; 'I' for Inactive)
REMARK    1  A    between atoms: _1  and  _3
REMARK    2  A    between atoms: _3  and  _4
REMARK    3  A    between atoms: _7  and  _9
REMARK    4  A    between atoms: _9  and  _10
REMARK    5  A    between atoms: _9  and  _12
REMARK    6  A    between atoms: _12  and  _13
REMARK    7  A    between atoms: _13  and  _14
REMARK    8  A    between atoms: _14  and  _15
REMARK    9  A    between atoms: _15  and  _16
REMARK   10  A    between atoms: _20  and  _22
REMARK   11  A    between atoms: _22  and  _23
REMARK   12  A    between atoms: _22  and  _25
REMARK   13  A    between atoms: _25  and  _26
REMARK   14  A    between atoms: _31  and  _33
REMARK   15  A    between atoms: _33  and  _34
REMARK   16  A    between atoms: _33  and  _36
REMARK   17  A    between atoms: _36  and  _37
REMARK   18  A    between atoms: _42  and  _43
REMARK   19  A    between atoms: _45  and  _47
REMARK   20  A    between atoms: _47  and  _48
REMARK   21  A    between atoms: _47  and  _50
REMARK   22  A    between atoms: _51  and  _52
REMARK   23  A    between atoms: _55  and  _57
REMARK   24  A    between atoms: _57  and  _58
REMARK   25  A    between atoms: _57  and  _60
REMARK   26  A    between atoms: _60  and  _61
REMARK   27  A    between atoms: _66  and  _68
REMARK   28  A    between atoms: _68  and  _69
REMARK   29  A    between atoms: _68  and  _71
REMARK   30  A    between atoms: _71  and  _72
REMARK   31  A    between atoms: _72  and  _73
REMARK   32  A    between atoms: _73  and  _74
REMARK   33  A    between atoms: _84  and  _85
REMARK   34  A    between atoms: _90  and  _92
REMARK   35  A    between atoms: _92  and  _93
REMARK   36  A    between atoms: _92  and  _95
REMARK   37  A    between atoms: _95  and  _96
REMARK   38  A    between atoms: _102  and  _104
REMARK   39  A    between atoms: _104  and  _105
REMARK   40  A    between atoms: _104  and  _107
REMARK   41  A    between atoms: _107  and  _108
REMARK   42  A    between atoms: _114  and  _116
REMARK   43  A    between atoms: _116  and  _117
REMARK   44  A    between atoms: _119  and  _121
REMARK   45  A    between atoms: _121  and  _122
REMARK   46  A    between atoms: _121  and  _124
REMARK   47  A    between atoms: _124  and  _125
REMARK   48  A    between atoms: _128  and  _130
REMARK   49  A    between atoms: _130  and  _131
REMARK   50  A    between atoms: _130  and  _133
REMARK   51  A    between atoms: _133  and  _134
REMARK   52  A    between atoms: _137  and  _139
REMARK   53  A    between atoms: _139  and  _140
REMARK   54  A    between atoms: _139  and  _142
REMARK   55  A    between atoms: _142  and  _143
REMARK   56  A    between atoms: _143  and  _144
REMARK   57  A    between atoms: _144  and  _145
REMARK   58  A    between atoms: _154  and  _156
REMARK   59  A    between atoms: _156  and  _157
REMARK   60  A    between atoms: _156  and  _159
REMARK   61  A    between atoms: _159  and  _160
REMARK   62  A    between atoms: _163  and  _165
REMARK   63  A    between atoms: _165  and  _166
REMARK   64  A    between atoms: _168  and  _170
REMARK   65  A    between atoms: _170  and  _171
REMARK   66  A    between atoms: _170  and  _173
REMARK   67  A    between atoms: _176  and  _178
REMARK   68  A    between atoms: _178  and  _179
REMARK   69  A    between atoms: _178  and  _181
REMARK   70  A    between atoms: _181  and  _182
REMARK   71  A    between atoms: _185  and  _187
REMARK   72  A    between atoms: _187  and  _188
REMARK   73  A    between atoms: _187  and  _190
REMARK   74  A    between atoms: _190  and  _191
REMARK   75  A    between atoms: _196  and  _198
REMARK   76  A    between atoms: _198  and  _199
REMARK   77  A    between atoms: _198  and  _201
REMARK   78  A    between atoms: _201  and  _202
REMARK   79  A    between atoms: _202  and  _203
REMARK   80  A    between atoms: _203  and  _204
REMARK   81  A    between atoms: _213  and  _215
REMARK   82  A    between atoms: _215  and  _216
REMARK   83  A    between atoms: _215  and  _218
REMARK   84  A    between atoms: _218  and  _219
REMARK   85  A    between atoms: _222  and  _224
REMARK   86  A    between atoms: _224  and  _225
REMARK   87  A    between atoms: _224  and  _227
REMARK   88  A    between atoms: _230  and  _232
REMARK   89  A    between atoms: _232  and  _233
REMARK   90  A    between atoms: _235  and  _237
REMARK   91  A    between atoms: _237  and  _238
REMARK   92  A    between atoms: _237  and  _240
REMARK   93  A    between atoms: _240  and  _241
REMARK   94  A    between atoms: _241  and  _242
REMARK   95  A    between atoms: _242  and  _243
REMARK   96  A    between atoms: _252  and  _254
REMARK   97  A    between atoms: _254  and  _255
REMARK   98  A    between atoms: _254  and  _257
REMARK   99  A    between atoms: _257  and  _258
REMARK  100  A    between atoms: _263  and  _265
REMARK  101  A    between atoms: _265  and  _266
REMARK  102  A    between atoms: _265  and  _268
REMARK  103  A    between atoms: _268  and  _269
REMARK  104  A    between atoms: _272  and  _274
REMARK  105  A    between atoms: _274  and  _275
REMARK  106  A    between atoms: _274  and  _277
REMARK  107  A    between atoms: _277  and  _278
REMARK  108  A    between atoms: _281  and  _283
REMARK  109  A    between atoms: _283  and  _284
REMARK  110  A    between atoms: _286  and  _288
REMARK  111  A    between atoms: _288  and  _289
REMARK  112  A    between atoms: _291  and  _293
REMARK  113  A    between atoms: _293  and  _294
REMARK  114  A    between atoms: _293  and  _296
REMARK  115  A    between atoms: _296  and  _297
REMARK  116  A    between atoms: _299  and  _301
REMARK  117  A    between atoms: _301  and  _302
REMARK  118  A    between atoms: _301  and  _304
REMARK  119  A    between atoms: _304  and  _305
REMARK  120  A    between atoms: _308  and  _310
REMARK  121  A    between atoms: _310  and  _311
REMARK  122  A    between atoms: _310  and  _313
REMARK  123  A    between atoms: _313  and  _314
REMARK  124  A    between atoms: _316  and  _318
REMARK  125  A    between atoms: _318  and  _319
REMARK  126  A    between atoms: _318  and  _321
REMARK  127  A    between atoms: _321  and  _322
REMARK  128  A    between atoms: _324  and  _326
REMARK  129  A    between atoms: _326  and  _327
REMARK  130  A    between atoms: _326  and  _329
REMARK  131  A    between atoms: _329  and  _330
REMARK  132  A    between atoms: _330  and  _331
REMARK  133  A    between atoms: _334  and  _336
REMARK  134  A    between atoms: _336  and  _337
REMARK  135  A    between atoms: _336  and  _339
REMARK  136  A    between atoms: _339  and  _340
REMARK  137  A    between atoms: _340  and  _341
REMARK                            x       y       z     vdW  Elec       q    Type
REMARK                         _______ _______ _______ _____ _____    ______ ____
ROOT
ATOM      1  O   HOH     1      40.884 -49.728  74.039  0.00  0.00    +0.000 OA
ENDROOT
TORSDOF 0
REMARK  Name = ../refined-set-2016/4cp5/4cp5_pocket.pdb
REMARK  137 active torsions:
REMARK  status: ('A' for Active; 'I' for Inactive)
REMARK    1  A    between atoms: _1  and  _3
REMARK    2  A    between atoms: _3  and  _4
REMARK    3  A    between atoms: _7  and  _9
REMARK    4  A    between atoms: _9  and  _10
REMARK    5  A    between atoms: _9  and  _12
REMARK    6  A    between atoms: _12  and  _13
REMARK    7  A    between atoms: _13  and  _14
REMARK    8  A    between atoms: _14  and  _15
REMARK    9  A    between atoms: _15  and  _16
REMARK   10  A    between atoms: _20  and  _22
REMARK   11  A    between atoms: _22  and  _23
REMARK   12  A    between atoms: _22  and  _25
REMARK   13  A    between atoms: _25  and  _26
REMARK   14  A    between atoms: _31  and  _33
REMARK   15  A    between atoms: _33  and  _34
REMARK   16  A    between atoms: _33  and  _36
REMARK   17  A    between atoms: _36  and  _37
REMARK   18  A    between atoms: _42  and  _43
REMARK   19  A    between atoms: _45  and  _47
REMARK   20  A    between atoms: _47  and  _48
REMARK   21  A    between atoms: _47  and  _50
REMARK   22  A    between atoms: _51  and  _52
REMARK   23  A    between atoms: _55  and  _57
REMARK   24  A    between atoms: _57  and  _58
REMARK   25  A    between atoms: _57  and  _60
REMARK   26  A    between atoms: _60  and  _61
REMARK   27  A    between atoms: _66  and  _68
REMARK   28  A    between atoms: _68  and  _69
REMARK   29  A    between atoms: _68  and  _71
REMARK   30  A    between atoms: _71  and  _72
REMARK   31  A    between atoms: _72  and  _73
REMARK   32  A    between atoms: _73  and  _74
REMARK   33  A    between atoms: _84  and  _85
REMARK   34  A    between atoms: _90  and  _92
REMARK   35  A    between atoms: _92  and  _93
REMARK   36  A    between atoms: _92  and  _95
REMARK   37  A    between atoms: _95  and  _96
REMARK   38  A    between atoms: _102  and  _104
REMARK   39  A    between atoms: _104  and  _105
REMARK   40  A    between atoms: _104  and  _107
REMARK   41  A    between atoms: _107  and  _108
REMARK   42  A    between atoms: _114  and  _116
REMARK   43  A    between atoms: _116  and  _117
REMARK   44  A    between atoms: _119  and  _121
REMARK   45  A    between atoms: _121  and  _122
REMARK   46  A    between atoms: _121  and  _124
REMARK   47  A    between atoms: _124  and  _125
REMARK   48  A    between atoms: _128  and  _130
REMARK   49  A    between atoms: _130  and  _131
REMARK   50  A    between atoms: _130  and  _133
REMARK   51  A    between atoms: _133  and  _134
REMARK   52  A    between atoms: _137  and  _139
REMARK   53  A    between atoms: _139  and  _140
REMARK   54  A    between atoms: _139  and  _142
REMARK   55  A    between atoms: _142  and  _143
REMARK   56  A    between atoms: _143  and  _144
REMARK   57  A    between atoms: _144  and  _145
REMARK   58  A    between atoms: _154  and  _156
REMARK   59  A    between atoms: _156  and  _157
REMARK   60  A    between atoms: _156  and  _159
REMARK   61  A    between atoms: _159  and  _160
REMARK   62  A    between atoms: _163  and  _165
REMARK   63  A    between atoms: _165  and  _166
REMARK   64  A    between atoms: _168  and  _170
REMARK   65  A    between atoms: _170  and  _171
REMARK   66  A    between atoms: _170  and  _173
REMARK   67  A    between atoms: _176  and  _178
REMARK   68  A    between atoms: _178  and  _179
REMARK   69  A    between atoms: _178  and  _181
REMARK   70  A    between atoms: _181  and  _182
REMARK   71  A    between atoms: _185  and  _187
REMARK   72  A    between atoms: _187  and  _188
REMARK   73  A    between atoms: _187  and  _190
REMARK   74  A    between atoms: _190  and  _191
REMARK   75  A    between atoms: _196  and  _198
REMARK   76  A    between atoms: _198  and  _199
REMARK   77  A    between atoms: _198  and  _201
REMARK   78  A    between atoms: _201  and  _202
REMARK   79  A    between atoms: _202  and  _203
REMARK   80  A    between atoms: _203  and  _204
REMARK   81  A    between atoms: _213  and  _215
REMARK   82  A    between atoms: _215  and  _216
REMARK   83  A    between atoms: _215  and  _218
REMARK   84  A    between atoms: _218  and  _219
REMARK   85  A    between atoms: _222  and  _224
REMARK   86  A    between atoms: _224  and  _225
REMARK   87  A    between atoms: _224  and  _227
REMARK   88  A    between atoms: _230  and  _232
REMARK   89  A    between atoms: _232  and  _233
REMARK   90  A    between atoms: _235  and  _237
REMARK   91  A    between atoms: _237  and  _238
REMARK   92  A    between atoms: _237  and  _240
REMARK   93  A    between atoms: _240  and  _241
REMARK   94  A    between atoms: _241  and  _242
REMARK   95  A    between atoms: _242  and  _243
REMARK   96  A    between atoms: _252  and  _254
REMARK   97  A    between atoms: _254  and  _255
REMARK   98  A    between atoms: _254  and  _257
REMARK   99  A    between atoms: _257  and  _258
REMARK  100  A    between atoms: _263  and  _265
REMARK  101  A    between atoms: _265  and  _266
REMARK  102  A    between atoms: _265  and  _268
REMARK  103  A    between atoms: _268  and  _269
REMARK  104  A    between atoms: _272  and  _274
REMARK  105  A    between atoms: _274  and  _275
REMARK  106  A    between atoms: _274  and  _277
REMARK  107  A    between atoms: _277  and  _278
REMARK  108  A    between atoms: _281  and  _283
REMARK  109  A    between atoms: _283  and  _284
REMARK  110  A    between atoms: _286  and  _288
REMARK  111  A    between atoms: _288  and  _289
REMARK  112  A    between atoms: _291  and  _293
REMARK  113  A    between atoms: _293  and  _294
REMARK  114  A    between atoms: _293  and  _296
REMARK  115  A    between atoms: _296  and  _297
REMARK  116  A    between atoms: _299  and  _301
REMARK  117  A    between atoms: _301  and  _302
REMARK  118  A    between atoms: _301  and  _304
REMARK  119  A    between atoms: _304  and  _305
REMARK  120  A    between atoms: _308  and  _310
REMARK  121  A    between atoms: _310  and  _311
REMARK  122  A    between atoms: _310  and  _313
REMARK  123  A    between atoms: _313  and  _314
REMARK  124  A    between atoms: _316  and  _318
REMARK  125  A    between atoms: _318  and  _319
REMARK  126  A    between atoms: _318  and  _321
REMARK  127  A    between atoms: _321  and  _322
REMARK  128  A    between atoms: _324  and  _326
REMARK  129  A    between atoms: _326  and  _327
REMARK  130  A    between atoms: _326  and  _329
REMARK  131  A    between atoms: _329  and  _330
REMARK  132  A    between atoms: _330  and  _331
REMARK  133  A    between atoms: _334  and  _336
REMARK  134  A    between atoms: _336  and  _337
REMARK  135  A    between atoms: _336  and  _339
REMARK  136  A    between atoms: _339  and  _340
REMARK  137  A    between atoms: _340  and  _341
REMARK                            x       y       z     vdW  Elec       q    Type
REMARK                         _______ _______ _______ _____ _____    ______ ____
ROOT
ATOM      1  O   HOH     1      48.798 -53.855  73.781  0.00  0.00    +0.000 OA
ENDROOT
TORSDOF 0
