REMARK  Name = ../refined-set-2016/2pu1/2pu1_pocket.pdb
REMARK  175 active torsions:
REMARK  status: ('A' for Active; 'I' for Inactive)
REMARK    1  A    between atoms: _1  and  _3
REMARK    2  A    between atoms: _3  and  _4
REMARK    3  A    between atoms: _3  and  _6
REMARK    4  A    between atoms: _6  and  _7
REMARK    5  A    between atoms: _7  and  _8
REMARK    6  A    between atoms: _8  and  _9
REMARK    7  A    between atoms: _19  and  _20
REMARK    8  A    between atoms: _25  and  _27
REMARK    9  A    between atoms: _27  and  _28
REMARK   10  A    between atoms: _27  and  _30
REMARK   11  A    between atoms: _30  and  _31
REMARK   12  A    between atoms: _33  and  _35
REMARK   13  A    between atoms: _35  and  _36
REMARK   14  A    between atoms: _38  and  _40
REMARK   15  A    between atoms: _40  and  _41
REMARK   16  A    between atoms: _44  and  _46
REMARK   17  A    between atoms: _46  and  _47
REMARK   18  A    between atoms: _46  and  _49
REMARK   19  A    between atoms: _47  and  _48
REMARK   20  A    between atoms: _47  and  _52
REMARK   21  A    between atoms: _48  and  ZN_381
REMARK   22  A    between atoms: _49  and  _50
REMARK   23  A    between atoms: _52  and  _54
REMARK   24  A    between atoms: _54  and  _55
REMARK   25  A    between atoms: _54  and  _57
REMARK   26  A    between atoms: _57  and  _58
REMARK   27  A    between atoms: _61  and  _63
REMARK   28  A    between atoms: _63  and  _64
REMARK   29  A    between atoms: _66  and  _68
REMARK   30  A    between atoms: _68  and  _69
REMARK   31  A    between atoms: _68  and  _71
REMARK   32  A    between atoms: _71  and  _72
REMARK   33  A    between atoms: _72  and  _73
REMARK   34  A    between atoms: _76  and  _78
REMARK   35  A    between atoms: _78  and  _79
REMARK   36  A    between atoms: _78  and  _81
REMARK   37  A    between atoms: _81  and  _82
REMARK   38  A    between atoms: _87  and  _89
REMARK   39  A    between atoms: _89  and  _90
REMARK   40  A    between atoms: _92  and  _94
REMARK   41  A    between atoms: _94  and  _95
REMARK   42  A    between atoms: _94  and  _97
REMARK   43  A    between atoms: _97  and  _98
REMARK   44  A    between atoms: _98  and  _99
REMARK   45  A    between atoms: _99  and  _100
REMARK   46  A    between atoms: _100  and  _101
REMARK   47  A    between atoms: _105  and  _107
REMARK   48  A    between atoms: _107  and  _108
REMARK   49  A    between atoms: _107  and  _110
REMARK   50  A    between atoms: _110  and  _111
REMARK   51  A    between atoms: _111  and  _112
REMARK   52  A    between atoms: _117  and  _119
REMARK   53  A    between atoms: _119  and  _120
REMARK   54  A    between atoms: _119  and  _122
REMARK   55  A    between atoms: _122  and  _123
REMARK   56  A    between atoms: _123  and  _124
REMARK   57  A    between atoms: _127  and  _129
REMARK   58  A    between atoms: _129  and  _130
REMARK   59  A    between atoms: _129  and  _132
REMARK   60  A    between atoms: _132  and  _133
REMARK   61  A    between atoms: _133  and  _134
REMARK   62  A    between atoms: _136  and  _138
REMARK   63  A    between atoms: _138  and  _139
REMARK   64  A    between atoms: _138  and  _141
REMARK   65  A    between atoms: _141  and  _142
REMARK   66  A    between atoms: _145  and  _147
REMARK   67  A    between atoms: _147  and  _148
REMARK   68  A    between atoms: _147  and  _150
REMARK   69  A    between atoms: _150  and  _151
REMARK   70  A    between atoms: _151  and  _152
REMARK   71  A    between atoms: _155  and  _157
REMARK   72  A    between atoms: _157  and  _158
REMARK   73  A    between atoms: _157  and  _160
REMARK   74  A    between atoms: _160  and  _161
REMARK   75  A    between atoms: _161  and  _163
REMARK   76  A    between atoms: _163  and  ZN_380
REMARK   77  A    between atoms: _164  and  _166
REMARK   78  A    between atoms: _166  and  _167
REMARK   79  A    between atoms: _166  and  _169
REMARK   80  A    between atoms: _171  and  _173
REMARK   81  A    between atoms: _173  and  _174
REMARK   82  A    between atoms: _177  and  _179
REMARK   83  A    between atoms: _179  and  _180
REMARK   84  A    between atoms: _179  and  _182
REMARK   85  A    between atoms: _182  and  _183
REMARK   86  A    between atoms: _183  and  _184
REMARK   87  A    between atoms: _187  and  _189
REMARK   88  A    between atoms: _189  and  _190
REMARK   89  A    between atoms: _189  and  _192
REMARK   90  A    between atoms: _192  and  _193
REMARK   91  A    between atoms: _193  and  _194
REMARK   92  A    between atoms: _194  and  _196
REMARK   93  A    between atoms: _196  and  ZN_380
REMARK   94  A    between atoms: _197  and  _199
REMARK   95  A    between atoms: _199  and  _200
REMARK   96  A    between atoms: _199  and  _202
REMARK   97  A    between atoms: _202  and  _203
REMARK   98  A    between atoms: _206  and  _208
REMARK   99  A    between atoms: _208  and  _209
REMARK  100  A    between atoms: _208  and  _211
REMARK  101  A    between atoms: _214  and  _216
REMARK  102  A    between atoms: _216  and  _217
REMARK  103  A    between atoms: _219  and  _221
REMARK  104  A    between atoms: _221  and  _222
REMARK  105  A    between atoms: _221  and  _224
REMARK  106  A    between atoms: _224  and  _225
REMARK  107  A    between atoms: _225  and  _227
REMARK  108  A    between atoms: _227  and  ZN_380
REMARK  109  A    between atoms: _228  and  _230
REMARK  110  A    between atoms: _230  and  _231
REMARK  111  A    between atoms: _230  and  _233
REMARK  112  A    between atoms: _233  and  _234
REMARK  113  A    between atoms: _237  and  _239
REMARK  114  A    between atoms: _239  and  _240
REMARK  115  A    between atoms: _239  and  _242
REMARK  116  A    between atoms: _242  and  _243
REMARK  117  A    between atoms: _246  and  _248
REMARK  118  A    between atoms: _248  and  _249
REMARK  119  A    between atoms: _248  and  _251
REMARK  120  A    between atoms: _251  and  _252
REMARK  121  A    between atoms: _252  and  _253
REMARK  122  A    between atoms: _253  and  _254
REMARK  123  A    between atoms: _254  and  _255
REMARK  124  A    between atoms: _259  and  _261
REMARK  125  A    between atoms: _261  and  _262
REMARK  126  A    between atoms: _261  and  _264
REMARK  127  A    between atoms: _264  and  _265
REMARK  128  A    between atoms: _270  and  _272
REMARK  129  A    between atoms: _272  and  _273
REMARK  130  A    between atoms: _272  and  _275
REMARK  131  A    between atoms: _275  and  _276
REMARK  132  A    between atoms: _276  and  _277
REMARK  133  A    between atoms: _282  and  _284
REMARK  134  A    between atoms: _284  and  _285
REMARK  135  A    between atoms: _284  and  _287
REMARK  136  A    between atoms: _287  and  _288
REMARK  137  A    between atoms: _288  and  _289
REMARK  138  A    between atoms: _291  and  _293
REMARK  139  A    between atoms: _293  and  _294
REMARK  140  A    between atoms: _293  and  _296
REMARK  141  A    between atoms: _296  and  _297
REMARK  142  A    between atoms: _299  and  _301
REMARK  143  A    between atoms: _301  and  _302
REMARK  144  A    between atoms: _301  and  _304
REMARK  145  A    between atoms: _304  and  _305
REMARK  146  A    between atoms: _310  and  _312
REMARK  147  A    between atoms: _312  and  _313
REMARK  148  A    between atoms: _312  and  _315
REMARK  149  A    between atoms: _315  and  _316
REMARK  150  A    between atoms: _316  and  _317
REMARK  151  A    between atoms: _317  and  _318
REMARK  152  A    between atoms: _327  and  _329
REMARK  153  A    between atoms: _329  and  _330
REMARK  154  A    between atoms: _329  and  _332
REMARK  155  A    between atoms: _332  and  _333
REMARK  156  A    between atoms: _335  and  _337
REMARK  157  A    between atoms: _337  and  _338
REMARK  158  A    between atoms: _340  and  _342
REMARK  159  A    between atoms: _342  and  _343
REMARK  160  A    between atoms: _342  and  _345
REMARK  161  A    between atoms: _345  and  _346
REMARK  162  A    between atoms: _346  and  _347
REMARK  163  A    between atoms: _350  and  _352
REMARK  164  A    between atoms: _352  and  _353
REMARK  165  A    between atoms: _352  and  _355
REMARK  166  A    between atoms: _355  and  _356
REMARK  167  A    between atoms: _356  and  _357
REMARK  168  A    between atoms: _357  and  _358
REMARK  169  A    between atoms: _358  and  _359
REMARK  170  A    between atoms: _363  and  _365
REMARK  171  A    between atoms: _365  and  _366
REMARK  172  A    between atoms: _365  and  _368
REMARK  173  A    between atoms: _368  and  _369
REMARK  174  A    between atoms: _369  and  _370
REMARK  175  A    between atoms: _370  and  _371
REMARK                            x       y       z     vdW  Elec       q    Type
REMARK                         _______ _______ _______ _____ _____    ______ ____
ROOT
ATOM      1  NE  ARG A   1      34.535  26.664 -16.764  0.00  0.00    -0.265 N 
ATOM      2  HE  ARG A   1      35.014  25.965 -16.161  0.00  0.00    +0.259 HD
ATOM      3  CZ  ARG A   1      33.201  26.657 -16.794  0.00  0.00    +0.342 C 
ATOM      4  NH2 ARG A   1      32.521  25.783 -16.071  0.00  0.00    -0.292 N 
ATOM      5 HH21 ARG A   1      33.026  25.096 -15.475  0.00  0.00    +0.255 HD
ATOM      6 HH22 ARG A   1      31.481  25.782 -16.098  0.00  0.00    +0.255 HD
ATOM      7  NH1 ARG A   1      32.549  27.580 -17.488  0.00  0.00    -0.292 N 
ATOM      8 HH11 ARG A   1      31.509  27.575 -17.512  0.00  0.00    +0.255 HD
ATOM      9 HH12 ARG A   1      33.077  28.309 -18.009  0.00  0.00    +0.255 HD
ENDROOT
BRANCH   1  10
ATOM     10  CD  ARG A   1      35.370  27.601 -17.532  0.00  0.00    +0.174 C 
BRANCH  10  11
ATOM     11  CG  ARG A   1      36.181  26.796 -18.603  0.00  0.00    +0.045 C 
BRANCH  11  12
ATOM     12  CB  ARG A   1      37.329  26.058 -17.882  0.00  0.00    +0.029 C 
BRANCH  12  13
ATOM     13  CA  ARG A   1      38.374  25.519 -18.867  0.00  0.00    +0.133 C 
BRANCH  13  14
ATOM     14  N   ARG A   1      37.873  24.270 -19.461  0.00  0.00    -0.239 NA
ATOM     15  H   ARG A   1      37.393  23.586 -18.842  0.00  0.00    +0.142 HD
ENDBRANCH  13  14
BRANCH  13  16
ATOM     16  C   ARG A   1      39.720  25.342 -18.172  0.00  0.00    +0.224 C 
ATOM     17  O   ARG A   1      40.280  26.315 -17.607  0.00  0.00    -0.287 OA
ENDBRANCH  13  16
ENDBRANCH  12  13
ENDBRANCH  11  12
ENDBRANCH  10  11
ENDBRANCH   1  10
TORSDOF 6
REMARK  Name = ../refined-set-2016/2pu1/2pu1_pocket.pdb
REMARK  175 active torsions:
REMARK  status: ('A' for Active; 'I' for Inactive)
REMARK    1  A    between atoms: _1  and  _3
REMARK    2  A    between atoms: _3  and  _4
REMARK    3  A    between atoms: _3  and  _6
REMARK    4  A    between atoms: _6  and  _7
REMARK    5  A    between atoms: _7  and  _8
REMARK    6  A    between atoms: _8  and  _9
REMARK    7  A    between atoms: _19  and  _20
REMARK    8  A    between atoms: _25  and  _27
REMARK    9  A    between atoms: _27  and  _28
REMARK   10  A    between atoms: _27  and  _30
REMARK   11  A    between atoms: _30  and  _31
REMARK   12  A    between atoms: _33  and  _35
REMARK   13  A    between atoms: _35  and  _36
REMARK   14  A    between atoms: _38  and  _40
REMARK   15  A    between atoms: _40  and  _41
REMARK   16  A    between atoms: _44  and  _46
REMARK   17  A    between atoms: _46  and  _47
REMARK   18  A    between atoms: _46  and  _49
REMARK   19  A    between atoms: _47  and  _48
REMARK   20  A    between atoms: _47  and  _52
REMARK   21  A    between atoms: _48  and  ZN_381
REMARK   22  A    between atoms: _49  and  _50
REMARK   23  A    between atoms: _52  and  _54
REMARK   24  A    between atoms: _54  and  _55
REMARK   25  A    between atoms: _54  and  _57
REMARK   26  A    between atoms: _57  and  _58
REMARK   27  A    between atoms: _61  and  _63
REMARK   28  A    between atoms: _63  and  _64
REMARK   29  A    between atoms: _66  and  _68
REMARK   30  A    between atoms: _68  and  _69
REMARK   31  A    between atoms: _68  and  _71
REMARK   32  A    between atoms: _71  and  _72
REMARK   33  A    between atoms: _72  and  _73
REMARK   34  A    between atoms: _76  and  _78
REMARK   35  A    between atoms: _78  and  _79
REMARK   36  A    between atoms: _78  and  _81
REMARK   37  A    between atoms: _81  and  _82
REMARK   38  A    between atoms: _87  and  _89
REMARK   39  A    between atoms: _89  and  _90
REMARK   40  A    between atoms: _92  and  _94
REMARK   41  A    between atoms: _94  and  _95
REMARK   42  A    between atoms: _94  and  _97
REMARK   43  A    between atoms: _97  and  _98
REMARK   44  A    between atoms: _98  and  _99
REMARK   45  A    between atoms: _99  and  _100
REMARK   46  A    between atoms: _100  and  _101
REMARK   47  A    between atoms: _105  and  _107
REMARK   48  A    between atoms: _107  and  _108
REMARK   49  A    between atoms: _107  and  _110
REMARK   50  A    between atoms: _110  and  _111
REMARK   51  A    between atoms: _111  and  _112
REMARK   52  A    between atoms: _117  and  _119
REMARK   53  A    between atoms: _119  and  _120
REMARK   54  A    between atoms: _119  and  _122
REMARK   55  A    between atoms: _122  and  _123
REMARK   56  A    between atoms: _123  and  _124
REMARK   57  A    between atoms: _127  and  _129
REMARK   58  A    between atoms: _129  and  _130
REMARK   59  A    between atoms: _129  and  _132
REMARK   60  A    between atoms: _132  and  _133
REMARK   61  A    between atoms: _133  and  _134
REMARK   62  A    between atoms: _136  and  _138
REMARK   63  A    between atoms: _138  and  _139
REMARK   64  A    between atoms: _138  and  _141
REMARK   65  A    between atoms: _141  and  _142
REMARK   66  A    between atoms: _145  and  _147
REMARK   67  A    between atoms: _147  and  _148
REMARK   68  A    between atoms: _147  and  _150
REMARK   69  A    between atoms: _150  and  _151
REMARK   70  A    between atoms: _151  and  _152
REMARK   71  A    between atoms: _155  and  _157
REMARK   72  A    between atoms: _157  and  _158
REMARK   73  A    between atoms: _157  and  _160
REMARK   74  A    between atoms: _160  and  _161
REMARK   75  A    between atoms: _161  and  _163
REMARK   76  A    between atoms: _163  and  ZN_380
REMARK   77  A    between atoms: _164  and  _166
REMARK   78  A    between atoms: _166  and  _167
REMARK   79  A    between atoms: _166  and  _169
REMARK   80  A    between atoms: _171  and  _173
REMARK   81  A    between atoms: _173  and  _174
REMARK   82  A    between atoms: _177  and  _179
REMARK   83  A    between atoms: _179  and  _180
REMARK   84  A    between atoms: _179  and  _182
REMARK   85  A    between atoms: _182  and  _183
REMARK   86  A    between atoms: _183  and  _184
REMARK   87  A    between atoms: _187  and  _189
REMARK   88  A    between atoms: _189  and  _190
REMARK   89  A    between atoms: _189  and  _192
REMARK   90  A    between atoms: _192  and  _193
REMARK   91  A    between atoms: _193  and  _194
REMARK   92  A    between atoms: _194  and  _196
REMARK   93  A    between atoms: _196  and  ZN_380
REMARK   94  A    between atoms: _197  and  _199
REMARK   95  A    between atoms: _199  and  _200
REMARK   96  A    between atoms: _199  and  _202
REMARK   97  A    between atoms: _202  and  _203
REMARK   98  A    between atoms: _206  and  _208
REMARK   99  A    between atoms: _208  and  _209
REMARK  100  A    between atoms: _208  and  _211
REMARK  101  A    between atoms: _214  and  _216
REMARK  102  A    between atoms: _216  and  _217
REMARK  103  A    between atoms: _219  and  _221
REMARK  104  A    between atoms: _221  and  _222
REMARK  105  A    between atoms: _221  and  _224
REMARK  106  A    between atoms: _224  and  _225
REMARK  107  A    between atoms: _225  and  _227
REMARK  108  A    between atoms: _227  and  ZN_380
REMARK  109  A    between atoms: _228  and  _230
REMARK  110  A    between atoms: _230  and  _231
REMARK  111  A    between atoms: _230  and  _233
REMARK  112  A    between atoms: _233  and  _234
REMARK  113  A    between atoms: _237  and  _239
REMARK  114  A    between atoms: _239  and  _240
REMARK  115  A    between atoms: _239  and  _242
REMARK  116  A    between atoms: _242  and  _243
REMARK  117  A    between atoms: _246  and  _248
REMARK  118  A    between atoms: _248  and  _249
REMARK  119  A    between atoms: _248  and  _251
REMARK  120  A    between atoms: _251  and  _252
REMARK  121  A    between atoms: _252  and  _253
REMARK  122  A    between atoms: _253  and  _254
REMARK  123  A    between atoms: _254  and  _255
REMARK  124  A    between atoms: _259  and  _261
REMARK  125  A    between atoms: _261  and  _262
REMARK  126  A    between atoms: _261  and  _264
REMARK  127  A    between atoms: _264  and  _265
REMARK  128  A    between atoms: _270  and  _272
REMARK  129  A    between atoms: _272  and  _273
REMARK  130  A    between atoms: _272  and  _275
REMARK  131  A    between atoms: _275  and  _276
REMARK  132  A    between atoms: _276  and  _277
REMARK  133  A    between atoms: _282  and  _284
REMARK  134  A    between atoms: _284  and  _285
REMARK  135  A    between atoms: _284  and  _287
REMARK  136  A    between atoms: _287  and  _288
REMARK  137  A    between atoms: _288  and  _289
REMARK  138  A    between atoms: _291  and  _293
REMARK  139  A    between atoms: _293  and  _294
REMARK  140  A    between atoms: _293  and  _296
REMARK  141  A    between atoms: _296  and  _297
REMARK  142  A    between atoms: _299  and  _301
REMARK  143  A    between atoms: _301  and  _302
REMARK  144  A    between atoms: _301  and  _304
REMARK  145  A    between atoms: _304  and  _305
REMARK  146  A    between atoms: _310  and  _312
REMARK  147  A    between atoms: _312  and  _313
REMARK  148  A    between atoms: _312  and  _315
REMARK  149  A    between atoms: _315  and  _316
REMARK  150  A    between atoms: _316  and  _317
REMARK  151  A    between atoms: _317  and  _318
REMARK  152  A    between atoms: _327  and  _329
REMARK  153  A    between atoms: _329  and  _330
REMARK  154  A    between atoms: _329  and  _332
REMARK  155  A    between atoms: _332  and  _333
REMARK  156  A    between atoms: _335  and  _337
REMARK  157  A    between atoms: _337  and  _338
REMARK  158  A    between atoms: _340  and  _342
REMARK  159  A    between atoms: _342  and  _343
REMARK  160  A    between atoms: _342  and  _345
REMARK  161  A    between atoms: _345  and  _346
REMARK  162  A    between atoms: _346  and  _347
REMARK  163  A    between atoms: _350  and  _352
REMARK  164  A    between atoms: _352  and  _353
REMARK  165  A    between atoms: _352  and  _355
REMARK  166  A    between atoms: _355  and  _356
REMARK  167  A    between atoms: _356  and  _357
REMARK  168  A    between atoms: _357  and  _358
REMARK  169  A    between atoms: _358  and  _359
REMARK  170  A    between atoms: _363  and  _365
REMARK  171  A    between atoms: _365  and  _366
REMARK  172  A    between atoms: _365  and  _368
REMARK  173  A    between atoms: _368  and  _369
REMARK  174  A    between atoms: _369  and  _370
REMARK  175  A    between atoms: _370  and  _371
REMARK                            x       y       z     vdW  Elec       q    Type
REMARK                         _______ _______ _______ _____ _____    ______ ____
ROOT
ATOM      1  C   ALA A   4      28.709  28.290 -12.858  0.00  0.00    +0.000 C 
ATOM      2  O   ALA A   4      28.775  28.657 -11.669  0.00  0.00    +0.000 OA
ATOM      3  N   UNK A   5      27.602  28.426 -13.588  0.00  0.00    +0.000 N 
ATOM      4  H   UNK A   5      27.614  28.152 -14.591  0.00  0.00    +0.000 HD
ENDROOT
BRANCH   1   5
ATOM      5  CA  ALA A   4      29.920  27.597 -13.536  0.00  0.00    +0.000 C 
ATOM      6  CB  ALA A   4      30.530  28.468 -14.638  0.00  0.00    +0.000 C 
BRANCH   5   9
ATOM      7  C   GLY A   3      29.740  25.151 -13.525  0.00  0.00    +0.000 C 
ATOM      8  O   GLY A   3      30.524  25.022 -12.574  0.00  0.00    +0.000 OA
ATOM      9  N   ALA A   4      29.478  26.325 -14.092  0.00  0.00    +0.000 N 
ATOM     10  H   ALA A   4      28.930  26.336 -14.976  0.00  0.00    +0.000 HD
BRANCH   7  11
ATOM     11  CA  GLY A   3      28.999  23.973 -14.113  0.00  0.00    +0.000 C 
BRANCH  11  13
ATOM     12  C   GLY A   2      30.709  22.275 -14.602  0.00  0.00    +0.000 C 
ATOM     13  N   GLY A   3      29.646  22.660 -13.890  0.00  0.00    +0.000 N 
ATOM     14  H   GLY A   3      29.264  22.023 -13.162  0.00  0.00    +0.000 HD
ATOM     15  O   GLY A   2      31.203  22.938 -15.536  0.00  0.00    +0.000 OA
BRANCH  12  16
ATOM     16  CA  GLY A   2      31.337  20.951 -14.190  0.00  0.00    +0.000 C 
BRANCH  16  19
ATOM     17  C   THR A   1      31.324  18.752 -15.198  0.00  0.00    +0.000 C 
ATOM     18  O   THR A   1      31.155  18.271 -14.079  0.00  0.00    +0.000 OA
ATOM     19  N   GLY A   2      31.420  20.066 -15.375  0.00  0.00    +0.000 N 
ATOM     20  H   GLY A   2      31.551  20.465 -16.327  0.00  0.00    +0.000 HD
BRANCH  17  25
ATOM     21  N   THR A   1      31.330  16.411 -16.016  0.00  0.00    +0.000 NA
ATOM     22  CD  THR A   1      29.946  15.871 -16.168  0.00  0.00    +0.000 C 
ATOM     23  CG  THR A   1      29.145  17.120 -16.663  0.00  0.00    +0.000 C 
ATOM     24  CB  THR A   1      30.202  17.974 -17.347  0.00  0.00    +0.000 C 
ATOM     25  CA  THR A   1      31.422  17.829 -16.427  0.00  0.00    +0.000 C 
ENDBRANCH  17  25
ENDBRANCH  16  19
BRANCH  16  26
ATOM     26  CB  GLY A   2      32.726  21.194 -13.582  0.00  0.00    +0.000 C 
BRANCH  26  27
ATOM     27  O   GLY A   2      32.694  22.158 -12.508  0.00  0.00    +0.000 OA
ATOM     28  H   GLY A   2      32.098  21.830 -11.789  0.00  0.00    +0.000 HD
ENDBRANCH  26  27
ENDBRANCH  16  26
ENDBRANCH  12  16
ENDBRANCH  11  13
ENDBRANCH   7  11
ENDBRANCH   5   9
ENDBRANCH   1   5
BRANCH   3  29
ATOM     29  C   UNK A   5      26.362  28.958 -12.999  0.00  0.00    +0.000 C 
BRANCH  29  30
ATOM     30  C   UNK A   5      25.542  27.808 -12.331  0.00  0.00    +0.000 C 
BRANCH  30  31
ATOM     31  N   THR A   1      26.076  27.256 -11.248  0.00  0.00    +0.000 NA
ATOM     32  H   THR A   1      26.925  27.677 -10.820  0.00  0.00    +0.000 HD
BRANCH  31  33
ATOM     33  CA  THR A   1      25.477  26.054 -10.648  0.00  0.00    +0.000 C 
BRANCH  33  34
ATOM     34  C   THR A   1      24.301  26.447  -9.748  0.00  0.00    +0.000 C 
ATOM     35  O   THR A   1      24.399  27.400  -8.938  0.00  0.00    +0.000 OA
ATOM     36  N   GLY A   2      23.191  25.705  -9.881  0.00  0.00    +0.000 N 
ATOM     37  H   GLY A   2      23.145  24.973 -10.618  0.00  0.00    +0.000 HD
BRANCH  36  38
ATOM     38  CA  GLY A   2      22.042  25.918  -8.995  0.00  0.00    +0.000 C 
BRANCH  38  39
ATOM     39  C   GLY A   2      22.366  25.576  -7.555  0.00  0.00    +0.000 C 
ATOM     40  O   GLY A   2      23.160  24.639  -7.300  0.00  0.00    +0.000 OA
ENDBRANCH  38  39
ENDBRANCH  36  38
ENDBRANCH  33  34
BRANCH  33  41
ATOM     41  CB  THR A   1      26.505  25.284  -9.820  0.00  0.00    +0.000 C 
ATOM     42  CG2 THR A   1      27.535  24.613 -10.751  0.00  0.00    +0.000 C 
BRANCH  41  43
ATOM     43  OG1 THR A   1      27.189  26.226  -8.980  0.00  0.00    +0.000 OA
ATOM     44  HG1 THR A   1      27.862  25.750  -8.432  0.00  0.00    +0.000 HD
ENDBRANCH  41  43
ENDBRANCH  33  41
ENDBRANCH  31  33
ENDBRANCH  30  31
BRANCH  30  45
ATOM     45  O   UNK A   5      24.465  27.415 -12.776  0.00  0.00    +0.000 OA
BRANCH  45  46
ATOM     46 ZN   UNK A   5      23.943  27.283 -14.810  0.00  0.00    +0.000 Zn
ATOM     47  O   UNK A   5      22.554  25.764 -14.306  0.00  0.00    +0.000 OA
ATOM     48  O   UNK A   5      22.373  28.729 -14.613  0.00  0.00    +0.000 OA
ENDBRANCH  45  46
ENDBRANCH  30  45
ENDBRANCH  29  30
BRANCH  29  49
ATOM     49  C   UNK A   5      25.570  29.788 -14.016  0.00  0.00    +0.000 C 
BRANCH  49  50
ATOM     50  O   UNK A   5      25.333  29.044 -15.184  0.00  0.00    +0.000 OA
ATOM     51  H   UNK A   5      24.813  28.232 -14.957  0.00  0.00    +0.000 HD
ENDBRANCH  49  50
ENDBRANCH  29  49
ENDBRANCH   3  29
TORSDOF 22
REMARK  Name = ../refined-set-2016/2pu1/2pu1_pocket.pdb
REMARK  175 active torsions:
REMARK  status: ('A' for Active; 'I' for Inactive)
REMARK    1  A    between atoms: _1  and  _3
REMARK    2  A    between atoms: _3  and  _4
REMARK    3  A    between atoms: _3  and  _6
REMARK    4  A    between atoms: _6  and  _7
REMARK    5  A    between atoms: _7  and  _8
REMARK    6  A    between atoms: _8  and  _9
REMARK    7  A    between atoms: _19  and  _20
REMARK    8  A    between atoms: _25  and  _27
REMARK    9  A    between atoms: _27  and  _28
REMARK   10  A    between atoms: _27  and  _30
REMARK   11  A    between atoms: _30  and  _31
REMARK   12  A    between atoms: _33  and  _35
REMARK   13  A    between atoms: _35  and  _36
REMARK   14  A    between atoms: _38  and  _40
REMARK   15  A    between atoms: _40  and  _41
REMARK   16  A    between atoms: _44  and  _46
REMARK   17  A    between atoms: _46  and  _47
REMARK   18  A    between atoms: _46  and  _49
REMARK   19  A    between atoms: _47  and  _48
REMARK   20  A    between atoms: _47  and  _52
REMARK   21  A    between atoms: _48  and  ZN_381
REMARK   22  A    between atoms: _49  and  _50
REMARK   23  A    between atoms: _52  and  _54
REMARK   24  A    between atoms: _54  and  _55
REMARK   25  A    between atoms: _54  and  _57
REMARK   26  A    between atoms: _57  and  _58
REMARK   27  A    between atoms: _61  and  _63
REMARK   28  A    between atoms: _63  and  _64
REMARK   29  A    between atoms: _66  and  _68
REMARK   30  A    between atoms: _68  and  _69
REMARK   31  A    between atoms: _68  and  _71
REMARK   32  A    between atoms: _71  and  _72
REMARK   33  A    between atoms: _72  and  _73
REMARK   34  A    between atoms: _76  and  _78
REMARK   35  A    between atoms: _78  and  _79
REMARK   36  A    between atoms: _78  and  _81
REMARK   37  A    between atoms: _81  and  _82
REMARK   38  A    between atoms: _87  and  _89
REMARK   39  A    between atoms: _89  and  _90
REMARK   40  A    between atoms: _92  and  _94
REMARK   41  A    between atoms: _94  and  _95
REMARK   42  A    between atoms: _94  and  _97
REMARK   43  A    between atoms: _97  and  _98
REMARK   44  A    between atoms: _98  and  _99
REMARK   45  A    between atoms: _99  and  _100
REMARK   46  A    between atoms: _100  and  _101
REMARK   47  A    between atoms: _105  and  _107
REMARK   48  A    between atoms: _107  and  _108
REMARK   49  A    between atoms: _107  and  _110
REMARK   50  A    between atoms: _110  and  _111
REMARK   51  A    between atoms: _111  and  _112
REMARK   52  A    between atoms: _117  and  _119
REMARK   53  A    between atoms: _119  and  _120
REMARK   54  A    between atoms: _119  and  _122
REMARK   55  A    between atoms: _122  and  _123
REMARK   56  A    between atoms: _123  and  _124
REMARK   57  A    between atoms: _127  and  _129
REMARK   58  A    between atoms: _129  and  _130
REMARK   59  A    between atoms: _129  and  _132
REMARK   60  A    between atoms: _132  and  _133
REMARK   61  A    between atoms: _133  and  _134
REMARK   62  A    between atoms: _136  and  _138
REMARK   63  A    between atoms: _138  and  _139
REMARK   64  A    between atoms: _138  and  _141
REMARK   65  A    between atoms: _141  and  _142
REMARK   66  A    between atoms: _145  and  _147
REMARK   67  A    between atoms: _147  and  _148
REMARK   68  A    between atoms: _147  and  _150
REMARK   69  A    between atoms: _150  and  _151
REMARK   70  A    between atoms: _151  and  _152
REMARK   71  A    between atoms: _155  and  _157
REMARK   72  A    between atoms: _157  and  _158
REMARK   73  A    between atoms: _157  and  _160
REMARK   74  A    between atoms: _160  and  _161
REMARK   75  A    between atoms: _161  and  _163
REMARK   76  A    between atoms: _163  and  ZN_380
REMARK   77  A    between atoms: _164  and  _166
REMARK   78  A    between atoms: _166  and  _167
REMARK   79  A    between atoms: _166  and  _169
REMARK   80  A    between atoms: _171  and  _173
REMARK   81  A    between atoms: _173  and  _174
REMARK   82  A    between atoms: _177  and  _179
REMARK   83  A    between atoms: _179  and  _180
REMARK   84  A    between atoms: _179  and  _182
REMARK   85  A    between atoms: _182  and  _183
REMARK   86  A    between atoms: _183  and  _184
REMARK   87  A    between atoms: _187  and  _189
REMARK   88  A    between atoms: _189  and  _190
REMARK   89  A    between atoms: _189  and  _192
REMARK   90  A    between atoms: _192  and  _193
REMARK   91  A    between atoms: _193  and  _194
REMARK   92  A    between atoms: _194  and  _196
REMARK   93  A    between atoms: _196  and  ZN_380
REMARK   94  A    between atoms: _197  and  _199
REMARK   95  A    between atoms: _199  and  _200
REMARK   96  A    between atoms: _199  and  _202
REMARK   97  A    between atoms: _202  and  _203
REMARK   98  A    between atoms: _206  and  _208
REMARK   99  A    between atoms: _208  and  _209
REMARK  100  A    between atoms: _208  and  _211
REMARK  101  A    between atoms: _214  and  _216
REMARK  102  A    between atoms: _216  and  _217
REMARK  103  A    between atoms: _219  and  _221
REMARK  104  A    between atoms: _221  and  _222
REMARK  105  A    between atoms: _221  and  _224
REMARK  106  A    between atoms: _224  and  _225
REMARK  107  A    between atoms: _225  and  _227
REMARK  108  A    between atoms: _227  and  ZN_380
REMARK  109  A    between atoms: _228  and  _230
REMARK  110  A    between atoms: _230  and  _231
REMARK  111  A    between atoms: _230  and  _233
REMARK  112  A    between atoms: _233  and  _234
REMARK  113  A    between atoms: _237  and  _239
REMARK  114  A    between atoms: _239  and  _240
REMARK  115  A    between atoms: _239  and  _242
REMARK  116  A    between atoms: _242  and  _243
REMARK  117  A    between atoms: _246  and  _248
REMARK  118  A    between atoms: _248  and  _249
REMARK  119  A    between atoms: _248  and  _251
REMARK  120  A    between atoms: _251  and  _252
REMARK  121  A    between atoms: _252  and  _253
REMARK  122  A    between atoms: _253  and  _254
REMARK  123  A    between atoms: _254  and  _255
REMARK  124  A    between atoms: _259  and  _261
REMARK  125  A    between atoms: _261  and  _262
REMARK  126  A    between atoms: _261  and  _264
REMARK  127  A    between atoms: _264  and  _265
REMARK  128  A    between atoms: _270  and  _272
REMARK  129  A    between atoms: _272  and  _273
REMARK  130  A    between atoms: _272  and  _275
REMARK  131  A    between atoms: _275  and  _276
REMARK  132  A    between atoms: _276  and  _277
REMARK  133  A    between atoms: _282  and  _284
REMARK  134  A    between atoms: _284  and  _285
REMARK  135  A    between atoms: _284  and  _287
REMARK  136  A    between atoms: _287  and  _288
REMARK  137  A    between atoms: _288  and  _289
REMARK  138  A    between atoms: _291  and  _293
REMARK  139  A    between atoms: _293  and  _294
REMARK  140  A    between atoms: _293  and  _296
REMARK  141  A    between atoms: _296  and  _297
REMARK  142  A    between atoms: _299  and  _301
REMARK  143  A    between atoms: _301  and  _302
REMARK  144  A    between atoms: _301  and  _304
REMARK  145  A    between atoms: _304  and  _305
REMARK  146  A    between atoms: _310  and  _312
REMARK  147  A    between atoms: _312  and  _313
REMARK  148  A    between atoms: _312  and  _315
REMARK  149  A    between atoms: _315  and  _316
REMARK  150  A    between atoms: _316  and  _317
REMARK  151  A    between atoms: _317  and  _318
REMARK  152  A    between atoms: _327  and  _329
REMARK  153  A    between atoms: _329  and  _330
REMARK  154  A    between atoms: _329  and  _332
REMARK  155  A    between atoms: _332  and  _333
REMARK  156  A    between atoms: _335  and  _337
REMARK  157  A    between atoms: _337  and  _338
REMARK  158  A    between atoms: _340  and  _342
REMARK  159  A    between atoms: _342  and  _343
REMARK  160  A    between atoms: _342  and  _345
REMARK  161  A    between atoms: _345  and  _346
REMARK  162  A    between atoms: _346  and  _347
REMARK  163  A    between atoms: _350  and  _352
REMARK  164  A    between atoms: _352  and  _353
REMARK  165  A    between atoms: _352  and  _355
REMARK  166  A    between atoms: _355  and  _356
REMARK  167  A    between atoms: _356  and  _357
REMARK  168  A    between atoms: _357  and  _358
REMARK  169  A    between atoms: _358  and  _359
REMARK  170  A    between atoms: _363  and  _365
REMARK  171  A    between atoms: _365  and  _366
REMARK  172  A    between atoms: _365  and  _368
REMARK  173  A    between atoms: _368  and  _369
REMARK  174  A    between atoms: _369  and  _370
REMARK  175  A    between atoms: _370  and  _371
REMARK                            x       y       z     vdW  Elec       q    Type
REMARK                         _______ _______ _______ _____ _____    ______ ____
ROOT
ATOM      1  CA  GLU A   1      22.556  20.768  -7.323  0.00  0.00    +0.134 C 
ENDROOT
BRANCH   1   2
ATOM      2  N   GLU A   1      21.833  21.847  -6.650  0.00  0.00    -0.239 NA
ATOM      3  H   GLU A   1      22.180  22.826  -6.708  0.00  0.00    +0.142 HD
ENDBRANCH   1   2
BRANCH   1   4
ATOM      4  C   GLU A   1      23.258  19.840  -6.312  0.00  0.00    +0.224 C 
ATOM      5  O   GLU A   1      23.652  20.236  -5.189  0.00  0.00    -0.287 OA
ENDBRANCH   1   4
BRANCH   1   6
ATOM      6  CB  GLU A   1      23.558  21.320  -8.329  0.00  0.00    +0.037 C 
BRANCH   6   7
ATOM      7  CG  GLU A   1      22.930  22.174  -9.460  0.00  0.00    +0.116 C 
BRANCH   7   8
ATOM      8  CD  GLU A   1      23.938  22.456 -10.593  0.00  0.00    +0.365 C 
ATOM      9  OE2 GLU A   1      25.002  21.752 -10.711  0.00  0.00    -0.246 OA
ATOM     10  OE1 GLU A   1      23.621  23.346 -11.398  0.00  0.00    -0.246 OA
ENDBRANCH   7   8
ENDBRANCH   6   7
ENDBRANCH   1   6
TORSDOF 5
REMARK  Name = ../refined-set-2016/2pu1/2pu1_pocket.pdb
REMARK  175 active torsions:
REMARK  status: ('A' for Active; 'I' for Inactive)
REMARK    1  A    between atoms: _1  and  _3
REMARK    2  A    between atoms: _3  and  _4
REMARK    3  A    between atoms: _3  and  _6
REMARK    4  A    between atoms: _6  and  _7
REMARK    5  A    between atoms: _7  and  _8
REMARK    6  A    between atoms: _8  and  _9
REMARK    7  A    between atoms: _19  and  _20
REMARK    8  A    between atoms: _25  and  _27
REMARK    9  A    between atoms: _27  and  _28
REMARK   10  A    between atoms: _27  and  _30
REMARK   11  A    between atoms: _30  and  _31
REMARK   12  A    between atoms: _33  and  _35
REMARK   13  A    between atoms: _35  and  _36
REMARK   14  A    between atoms: _38  and  _40
REMARK   15  A    between atoms: _40  and  _41
REMARK   16  A    between atoms: _44  and  _46
REMARK   17  A    between atoms: _46  and  _47
REMARK   18  A    between atoms: _46  and  _49
REMARK   19  A    between atoms: _47  and  _48
REMARK   20  A    between atoms: _47  and  _52
REMARK   21  A    between atoms: _48  and  ZN_381
REMARK   22  A    between atoms: _49  and  _50
REMARK   23  A    between atoms: _52  and  _54
REMARK   24  A    between atoms: _54  and  _55
REMARK   25  A    between atoms: _54  and  _57
REMARK   26  A    between atoms: _57  and  _58
REMARK   27  A    between atoms: _61  and  _63
REMARK   28  A    between atoms: _63  and  _64
REMARK   29  A    between atoms: _66  and  _68
REMARK   30  A    between atoms: _68  and  _69
REMARK   31  A    between atoms: _68  and  _71
REMARK   32  A    between atoms: _71  and  _72
REMARK   33  A    between atoms: _72  and  _73
REMARK   34  A    between atoms: _76  and  _78
REMARK   35  A    between atoms: _78  and  _79
REMARK   36  A    between atoms: _78  and  _81
REMARK   37  A    between atoms: _81  and  _82
REMARK   38  A    between atoms: _87  and  _89
REMARK   39  A    between atoms: _89  and  _90
REMARK   40  A    between atoms: _92  and  _94
REMARK   41  A    between atoms: _94  and  _95
REMARK   42  A    between atoms: _94  and  _97
REMARK   43  A    between atoms: _97  and  _98
REMARK   44  A    between atoms: _98  and  _99
REMARK   45  A    between atoms: _99  and  _100
REMARK   46  A    between atoms: _100  and  _101
REMARK   47  A    between atoms: _105  and  _107
REMARK   48  A    between atoms: _107  and  _108
REMARK   49  A    between atoms: _107  and  _110
REMARK   50  A    between atoms: _110  and  _111
REMARK   51  A    between atoms: _111  and  _112
REMARK   52  A    between atoms: _117  and  _119
REMARK   53  A    between atoms: _119  and  _120
REMARK   54  A    between atoms: _119  and  _122
REMARK   55  A    between atoms: _122  and  _123
REMARK   56  A    between atoms: _123  and  _124
REMARK   57  A    between atoms: _127  and  _129
REMARK   58  A    between atoms: _129  and  _130
REMARK   59  A    between atoms: _129  and  _132
REMARK   60  A    between atoms: _132  and  _133
REMARK   61  A    between atoms: _133  and  _134
REMARK   62  A    between atoms: _136  and  _138
REMARK   63  A    between atoms: _138  and  _139
REMARK   64  A    between atoms: _138  and  _141
REMARK   65  A    between atoms: _141  and  _142
REMARK   66  A    between atoms: _145  and  _147
REMARK   67  A    between atoms: _147  and  _148
REMARK   68  A    between atoms: _147  and  _150
REMARK   69  A    between atoms: _150  and  _151
REMARK   70  A    between atoms: _151  and  _152
REMARK   71  A    between atoms: _155  and  _157
REMARK   72  A    between atoms: _157  and  _158
REMARK   73  A    between atoms: _157  and  _160
REMARK   74  A    between atoms: _160  and  _161
REMARK   75  A    between atoms: _161  and  _163
REMARK   76  A    between atoms: _163  and  ZN_380
REMARK   77  A    between atoms: _164  and  _166
REMARK   78  A    between atoms: _166  and  _167
REMARK   79  A    between atoms: _166  and  _169
REMARK   80  A    between atoms: _171  and  _173
REMARK   81  A    between atoms: _173  and  _174
REMARK   82  A    between atoms: _177  and  _179
REMARK   83  A    between atoms: _179  and  _180
REMARK   84  A    between atoms: _179  and  _182
REMARK   85  A    between atoms: _182  and  _183
REMARK   86  A    between atoms: _183  and  _184
REMARK   87  A    between atoms: _187  and  _189
REMARK   88  A    between atoms: _189  and  _190
REMARK   89  A    between atoms: _189  and  _192
REMARK   90  A    between atoms: _192  and  _193
REMARK   91  A    between atoms: _193  and  _194
REMARK   92  A    between atoms: _194  and  _196
REMARK   93  A    between atoms: _196  and  ZN_380
REMARK   94  A    between atoms: _197  and  _199
REMARK   95  A    between atoms: _199  and  _200
REMARK   96  A    between atoms: _199  and  _202
REMARK   97  A    between atoms: _202  and  _203
REMARK   98  A    between atoms: _206  and  _208
REMARK   99  A    between atoms: _208  and  _209
REMARK  100  A    between atoms: _208  and  _211
REMARK  101  A    between atoms: _214  and  _216
REMARK  102  A    between atoms: _216  and  _217
REMARK  103  A    between atoms: _219  and  _221
REMARK  104  A    between atoms: _221  and  _222
REMARK  105  A    between atoms: _221  and  _224
REMARK  106  A    between atoms: _224  and  _225
REMARK  107  A    between atoms: _225  and  _227
REMARK  108  A    between atoms: _227  and  ZN_380
REMARK  109  A    between atoms: _228  and  _230
REMARK  110  A    between atoms: _230  and  _231
REMARK  111  A    between atoms: _230  and  _233
REMARK  112  A    between atoms: _233  and  _234
REMARK  113  A    between atoms: _237  and  _239
REMARK  114  A    between atoms: _239  and  _240
REMARK  115  A    between atoms: _239  and  _242
REMARK  116  A    between atoms: _242  and  _243
REMARK  117  A    between atoms: _246  and  _248
REMARK  118  A    between atoms: _248  and  _249
REMARK  119  A    between atoms: _248  and  _251
REMARK  120  A    between atoms: _251  and  _252
REMARK  121  A    between atoms: _252  and  _253
REMARK  122  A    between atoms: _253  and  _254
REMARK  123  A    between atoms: _254  and  _255
REMARK  124  A    between atoms: _259  and  _261
REMARK  125  A    between atoms: _261  and  _262
REMARK  126  A    between atoms: _261  and  _264
REMARK  127  A    between atoms: _264  and  _265
REMARK  128  A    between atoms: _270  and  _272
REMARK  129  A    between atoms: _272  and  _273
REMARK  130  A    between atoms: _272  and  _275
REMARK  131  A    between atoms: _275  and  _276
REMARK  132  A    between atoms: _276  and  _277
REMARK  133  A    between atoms: _282  and  _284
REMARK  134  A    between atoms: _284  and  _285
REMARK  135  A    between atoms: _284  and  _287
REMARK  136  A    between atoms: _287  and  _288
REMARK  137  A    between atoms: _288  and  _289
REMARK  138  A    between atoms: _291  and  _293
REMARK  139  A    between atoms: _293  and  _294
REMARK  140  A    between atoms: _293  and  _296
REMARK  141  A    between atoms: _296  and  _297
REMARK  142  A    between atoms: _299  and  _301
REMARK  143  A    between atoms: _301  and  _302
REMARK  144  A    between atoms: _301  and  _304
REMARK  145  A    between atoms: _304  and  _305
REMARK  146  A    between atoms: _310  and  _312
REMARK  147  A    between atoms: _312  and  _313
REMARK  148  A    between atoms: _312  and  _315
REMARK  149  A    between atoms: _315  and  _316
REMARK  150  A    between atoms: _316  and  _317
REMARK  151  A    between atoms: _317  and  _318
REMARK  152  A    between atoms: _327  and  _329
REMARK  153  A    between atoms: _329  and  _330
REMARK  154  A    between atoms: _329  and  _332
REMARK  155  A    between atoms: _332  and  _333
REMARK  156  A    between atoms: _335  and  _337
REMARK  157  A    between atoms: _337  and  _338
REMARK  158  A    between atoms: _340  and  _342
REMARK  159  A    between atoms: _342  and  _343
REMARK  160  A    between atoms: _342  and  _345
REMARK  161  A    between atoms: _345  and  _346
REMARK  162  A    between atoms: _346  and  _347
REMARK  163  A    between atoms: _350  and  _352
REMARK  164  A    between atoms: _352  and  _353
REMARK  165  A    between atoms: _352  and  _355
REMARK  166  A    between atoms: _355  and  _356
REMARK  167  A    between atoms: _356  and  _357
REMARK  168  A    between atoms: _357  and  _358
REMARK  169  A    between atoms: _358  and  _359
REMARK  170  A    between atoms: _363  and  _365
REMARK  171  A    between atoms: _365  and  _366
REMARK  172  A    between atoms: _365  and  _368
REMARK  173  A    between atoms: _368  and  _369
REMARK  174  A    between atoms: _369  and  _370
REMARK  175  A    between atoms: _370  and  _371
REMARK                            x       y       z     vdW  Elec       q    Type
REMARK                         _______ _______ _______ _____ _____    ______ ____
ROOT
ATOM      1  CB  ASN A   1      25.122  28.373 -26.473  0.00  0.00    +0.110 C 
ENDROOT
BRANCH   1   2
ATOM      2  CG  ASN A   1      25.500  29.624 -25.717  0.00  0.00    +0.221 C 
ATOM      3  ND2 ASN A   1      26.220  29.437 -24.622  0.00  0.00    -0.329 N 
ATOM      4 HD21 ASN A   1      26.520  30.253 -24.051  0.00  0.00    +0.145 HD
ATOM      5 HD22 ASN A   1      26.486  28.474 -24.333  0.00  0.00    +0.145 HD
ATOM      6  OD1 ASN A   1      25.150  30.754 -26.115  0.00  0.00    -0.275 OA
ENDBRANCH   1   2
BRANCH   1   7
ATOM      7  CA  ASN A   1      24.781  28.650 -27.940  0.00  0.00    +0.142 C 
BRANCH   7   8
ATOM      8  N   ASN A   1      24.566  27.375 -28.633  0.00  0.00    -0.239 NA
ATOM      9  H   ASN A   1      24.982  26.501 -28.252  0.00  0.00    +0.142 HD
ENDBRANCH   7   8
BRANCH   7  10
ATOM     10  C   ASN A   1      25.849  29.510 -28.664  0.00  0.00    +0.225 C 
ATOM     11  O   ASN A   1      27.055  29.347 -28.469  0.00  0.00    -0.287 OA
ENDBRANCH   7  10
ENDBRANCH   1   7
TORSDOF 4
REMARK  Name = ../refined-set-2016/2pu1/2pu1_pocket.pdb
REMARK  175 active torsions:
REMARK  status: ('A' for Active; 'I' for Inactive)
REMARK    1  A    between atoms: _1  and  _3
REMARK    2  A    between atoms: _3  and  _4
REMARK    3  A    between atoms: _3  and  _6
REMARK    4  A    between atoms: _6  and  _7
REMARK    5  A    between atoms: _7  and  _8
REMARK    6  A    between atoms: _8  and  _9
REMARK    7  A    between atoms: _19  and  _20
REMARK    8  A    between atoms: _25  and  _27
REMARK    9  A    between atoms: _27  and  _28
REMARK   10  A    between atoms: _27  and  _30
REMARK   11  A    between atoms: _30  and  _31
REMARK   12  A    between atoms: _33  and  _35
REMARK   13  A    between atoms: _35  and  _36
REMARK   14  A    between atoms: _38  and  _40
REMARK   15  A    between atoms: _40  and  _41
REMARK   16  A    between atoms: _44  and  _46
REMARK   17  A    between atoms: _46  and  _47
REMARK   18  A    between atoms: _46  and  _49
REMARK   19  A    between atoms: _47  and  _48
REMARK   20  A    between atoms: _47  and  _52
REMARK   21  A    between atoms: _48  and  ZN_381
REMARK   22  A    between atoms: _49  and  _50
REMARK   23  A    between atoms: _52  and  _54
REMARK   24  A    between atoms: _54  and  _55
REMARK   25  A    between atoms: _54  and  _57
REMARK   26  A    between atoms: _57  and  _58
REMARK   27  A    between atoms: _61  and  _63
REMARK   28  A    between atoms: _63  and  _64
REMARK   29  A    between atoms: _66  and  _68
REMARK   30  A    between atoms: _68  and  _69
REMARK   31  A    between atoms: _68  and  _71
REMARK   32  A    between atoms: _71  and  _72
REMARK   33  A    between atoms: _72  and  _73
REMARK   34  A    between atoms: _76  and  _78
REMARK   35  A    between atoms: _78  and  _79
REMARK   36  A    between atoms: _78  and  _81
REMARK   37  A    between atoms: _81  and  _82
REMARK   38  A    between atoms: _87  and  _89
REMARK   39  A    between atoms: _89  and  _90
REMARK   40  A    between atoms: _92  and  _94
REMARK   41  A    between atoms: _94  and  _95
REMARK   42  A    between atoms: _94  and  _97
REMARK   43  A    between atoms: _97  and  _98
REMARK   44  A    between atoms: _98  and  _99
REMARK   45  A    between atoms: _99  and  _100
REMARK   46  A    between atoms: _100  and  _101
REMARK   47  A    between atoms: _105  and  _107
REMARK   48  A    between atoms: _107  and  _108
REMARK   49  A    between atoms: _107  and  _110
REMARK   50  A    between atoms: _110  and  _111
REMARK   51  A    between atoms: _111  and  _112
REMARK   52  A    between atoms: _117  and  _119
REMARK   53  A    between atoms: _119  and  _120
REMARK   54  A    between atoms: _119  and  _122
REMARK   55  A    between atoms: _122  and  _123
REMARK   56  A    between atoms: _123  and  _124
REMARK   57  A    between atoms: _127  and  _129
REMARK   58  A    between atoms: _129  and  _130
REMARK   59  A    between atoms: _129  and  _132
REMARK   60  A    between atoms: _132  and  _133
REMARK   61  A    between atoms: _133  and  _134
REMARK   62  A    between atoms: _136  and  _138
REMARK   63  A    between atoms: _138  and  _139
REMARK   64  A    between atoms: _138  and  _141
REMARK   65  A    between atoms: _141  and  _142
REMARK   66  A    between atoms: _145  and  _147
REMARK   67  A    between atoms: _147  and  _148
REMARK   68  A    between atoms: _147  and  _150
REMARK   69  A    between atoms: _150  and  _151
REMARK   70  A    between atoms: _151  and  _152
REMARK   71  A    between atoms: _155  and  _157
REMARK   72  A    between atoms: _157  and  _158
REMARK   73  A    between atoms: _157  and  _160
REMARK   74  A    between atoms: _160  and  _161
REMARK   75  A    between atoms: _161  and  _163
REMARK   76  A    between atoms: _163  and  ZN_380
REMARK   77  A    between atoms: _164  and  _166
REMARK   78  A    between atoms: _166  and  _167
REMARK   79  A    between atoms: _166  and  _169
REMARK   80  A    between atoms: _171  and  _173
REMARK   81  A    between atoms: _173  and  _174
REMARK   82  A    between atoms: _177  and  _179
REMARK   83  A    between atoms: _179  and  _180
REMARK   84  A    between atoms: _179  and  _182
REMARK   85  A    between atoms: _182  and  _183
REMARK   86  A    between atoms: _183  and  _184
REMARK   87  A    between atoms: _187  and  _189
REMARK   88  A    between atoms: _189  and  _190
REMARK   89  A    between atoms: _189  and  _192
REMARK   90  A    between atoms: _192  and  _193
REMARK   91  A    between atoms: _193  and  _194
REMARK   92  A    between atoms: _194  and  _196
REMARK   93  A    between atoms: _196  and  ZN_380
REMARK   94  A    between atoms: _197  and  _199
REMARK   95  A    between atoms: _199  and  _200
REMARK   96  A    between atoms: _199  and  _202
REMARK   97  A    between atoms: _202  and  _203
REMARK   98  A    between atoms: _206  and  _208
REMARK   99  A    between atoms: _208  and  _209
REMARK  100  A    between atoms: _208  and  _211
REMARK  101  A    between atoms: _214  and  _216
REMARK  102  A    between atoms: _216  and  _217
REMARK  103  A    between atoms: _219  and  _221
REMARK  104  A    between atoms: _221  and  _222
REMARK  105  A    between atoms: _221  and  _224
REMARK  106  A    between atoms: _224  and  _225
REMARK  107  A    between atoms: _225  and  _227
REMARK  108  A    between atoms: _227  and  ZN_380
REMARK  109  A    between atoms: _228  and  _230
REMARK  110  A    between atoms: _230  and  _231
REMARK  111  A    between atoms: _230  and  _233
REMARK  112  A    between atoms: _233  and  _234
REMARK  113  A    between atoms: _237  and  _239
REMARK  114  A    between atoms: _239  and  _240
REMARK  115  A    between atoms: _239  and  _242
REMARK  116  A    between atoms: _242  and  _243
REMARK  117  A    between atoms: _246  and  _248
REMARK  118  A    between atoms: _248  and  _249
REMARK  119  A    between atoms: _248  and  _251
REMARK  120  A    between atoms: _251  and  _252
REMARK  121  A    between atoms: _252  and  _253
REMARK  122  A    between atoms: _253  and  _254
REMARK  123  A    between atoms: _254  and  _255
REMARK  124  A    between atoms: _259  and  _261
REMARK  125  A    between atoms: _261  and  _262
REMARK  126  A    between atoms: _261  and  _264
REMARK  127  A    between atoms: _264  and  _265
REMARK  128  A    between atoms: _270  and  _272
REMARK  129  A    between atoms: _272  and  _273
REMARK  130  A    between atoms: _272  and  _275
REMARK  131  A    between atoms: _275  and  _276
REMARK  132  A    between atoms: _276  and  _277
REMARK  133  A    between atoms: _282  and  _284
REMARK  134  A    between atoms: _284  and  _285
REMARK  135  A    between atoms: _284  and  _287
REMARK  136  A    between atoms: _287  and  _288
REMARK  137  A    between atoms: _288  and  _289
REMARK  138  A    between atoms: _291  and  _293
REMARK  139  A    between atoms: _293  and  _294
REMARK  140  A    between atoms: _293  and  _296
REMARK  141  A    between atoms: _296  and  _297
REMARK  142  A    between atoms: _299  and  _301
REMARK  143  A    between atoms: _301  and  _302
REMARK  144  A    between atoms: _301  and  _304
REMARK  145  A    between atoms: _304  and  _305
REMARK  146  A    between atoms: _310  and  _312
REMARK  147  A    between atoms: _312  and  _313
REMARK  148  A    between atoms: _312  and  _315
REMARK  149  A    between atoms: _315  and  _316
REMARK  150  A    between atoms: _316  and  _317
REMARK  151  A    between atoms: _317  and  _318
REMARK  152  A    between atoms: _327  and  _329
REMARK  153  A    between atoms: _329  and  _330
REMARK  154  A    between atoms: _329  and  _332
REMARK  155  A    between atoms: _332  and  _333
REMARK  156  A    between atoms: _335  and  _337
REMARK  157  A    between atoms: _337  and  _338
REMARK  158  A    between atoms: _340  and  _342
REMARK  159  A    between atoms: _342  and  _343
REMARK  160  A    between atoms: _342  and  _345
REMARK  161  A    between atoms: _345  and  _346
REMARK  162  A    between atoms: _346  and  _347
REMARK  163  A    between atoms: _350  and  _352
REMARK  164  A    between atoms: _352  and  _353
REMARK  165  A    between atoms: _352  and  _355
REMARK  166  A    between atoms: _355  and  _356
REMARK  167  A    between atoms: _356  and  _357
REMARK  168  A    between atoms: _357  and  _358
REMARK  169  A    between atoms: _358  and  _359
REMARK  170  A    between atoms: _363  and  _365
REMARK  171  A    between atoms: _365  and  _366
REMARK  172  A    between atoms: _365  and  _368
REMARK  173  A    between atoms: _368  and  _369
REMARK  174  A    between atoms: _369  and  _370
REMARK  175  A    between atoms: _370  and  _371
REMARK                            x       y       z     vdW  Elec       q    Type
REMARK                         _______ _______ _______ _____ _____    ______ ____
ROOT
ATOM      1  CA  LYS A   2      28.966  34.769 -15.326  0.00  0.00    +0.137 C 
ENDROOT
BRANCH   1   3
ATOM      2  C   GLY A   1      27.939  35.631 -17.412  0.00  0.00    +0.240 C 
ATOM      3  N   LYS A   2      27.899  34.871 -16.319  0.00  0.00    -0.298 N 
ATOM      4  H   LYS A   2      27.041  34.306 -16.160  0.00  0.00    +0.150 HD
ATOM      5  O   GLY A   1      28.891  36.403 -17.683  0.00  0.00    -0.274 OA
BRANCH   2   6
ATOM      6  CA  GLY A   1      26.691  35.512 -18.306  0.00  0.00    +0.169 C 
BRANCH   6   7
ATOM      7  N   GLY A   1      26.815  35.934 -19.724  0.00  0.00    -0.236 NA
ATOM      8  H   GLY A   1      27.533  35.472 -20.318  0.00  0.00    +0.142 HD
ENDBRANCH   6   7
ENDBRANCH   2   6
ENDBRANCH   1   3
BRANCH   1   9
ATOM      9  C   LYS A   2      30.270  34.360 -16.039  0.00  0.00    +0.227 C 
ATOM     10  O   LYS A   2      30.315  33.276 -16.581  0.00  0.00    -0.286 OA
ENDBRANCH   1   9
BRANCH   1  11
ATOM     11  CB  LYS A   2      28.515  33.699 -14.308  0.00  0.00    +0.028 C 
BRANCH  11  12
ATOM     12  CG  LYS A   2      29.570  33.177 -13.357  0.00  0.00    -0.000 C 
BRANCH  12  13
ATOM     13  CD  LYS A   2      28.963  32.211 -12.353  0.00  0.00    -0.024 C 
BRANCH  13  14
ATOM     14  CE  LYS A   2      29.970  31.922 -11.252  0.00  0.00    -0.086 C 
BRANCH  14  15
ATOM     15  NZ  LYS A   2      29.358  31.162 -10.132  0.00  0.00    +0.380 N 
ATOM     16  HZ1 LYS A   2      30.077  30.985  -9.401  0.00  0.00    -0.089 HD
ATOM     17  HZ2 LYS A   2      28.577  31.715  -9.725  0.00  0.00    -0.089 HD
ATOM     18  HZ3 LYS A   2      28.993  30.256 -10.488  0.00  0.00    -0.089 HD
ENDBRANCH  14  15
ENDBRANCH  13  14
ENDBRANCH  12  13
ENDBRANCH  11  12
ENDBRANCH   1  11
TORSDOF 9
REMARK  Name = ../refined-set-2016/2pu1/2pu1_pocket.pdb
REMARK  175 active torsions:
REMARK  status: ('A' for Active; 'I' for Inactive)
REMARK    1  A    between atoms: _1  and  _3
REMARK    2  A    between atoms: _3  and  _4
REMARK    3  A    between atoms: _3  and  _6
REMARK    4  A    between atoms: _6  and  _7
REMARK    5  A    between atoms: _7  and  _8
REMARK    6  A    between atoms: _8  and  _9
REMARK    7  A    between atoms: _19  and  _20
REMARK    8  A    between atoms: _25  and  _27
REMARK    9  A    between atoms: _27  and  _28
REMARK   10  A    between atoms: _27  and  _30
REMARK   11  A    between atoms: _30  and  _31
REMARK   12  A    between atoms: _33  and  _35
REMARK   13  A    between atoms: _35  and  _36
REMARK   14  A    between atoms: _38  and  _40
REMARK   15  A    between atoms: _40  and  _41
REMARK   16  A    between atoms: _44  and  _46
REMARK   17  A    between atoms: _46  and  _47
REMARK   18  A    between atoms: _46  and  _49
REMARK   19  A    between atoms: _47  and  _48
REMARK   20  A    between atoms: _47  and  _52
REMARK   21  A    between atoms: _48  and  ZN_381
REMARK   22  A    between atoms: _49  and  _50
REMARK   23  A    between atoms: _52  and  _54
REMARK   24  A    between atoms: _54  and  _55
REMARK   25  A    between atoms: _54  and  _57
REMARK   26  A    between atoms: _57  and  _58
REMARK   27  A    between atoms: _61  and  _63
REMARK   28  A    between atoms: _63  and  _64
REMARK   29  A    between atoms: _66  and  _68
REMARK   30  A    between atoms: _68  and  _69
REMARK   31  A    between atoms: _68  and  _71
REMARK   32  A    between atoms: _71  and  _72
REMARK   33  A    between atoms: _72  and  _73
REMARK   34  A    between atoms: _76  and  _78
REMARK   35  A    between atoms: _78  and  _79
REMARK   36  A    between atoms: _78  and  _81
REMARK   37  A    between atoms: _81  and  _82
REMARK   38  A    between atoms: _87  and  _89
REMARK   39  A    between atoms: _89  and  _90
REMARK   40  A    between atoms: _92  and  _94
REMARK   41  A    between atoms: _94  and  _95
REMARK   42  A    between atoms: _94  and  _97
REMARK   43  A    between atoms: _97  and  _98
REMARK   44  A    between atoms: _98  and  _99
REMARK   45  A    between atoms: _99  and  _100
REMARK   46  A    between atoms: _100  and  _101
REMARK   47  A    between atoms: _105  and  _107
REMARK   48  A    between atoms: _107  and  _108
REMARK   49  A    between atoms: _107  and  _110
REMARK   50  A    between atoms: _110  and  _111
REMARK   51  A    between atoms: _111  and  _112
REMARK   52  A    between atoms: _117  and  _119
REMARK   53  A    between atoms: _119  and  _120
REMARK   54  A    between atoms: _119  and  _122
REMARK   55  A    between atoms: _122  and  _123
REMARK   56  A    between atoms: _123  and  _124
REMARK   57  A    between atoms: _127  and  _129
REMARK   58  A    between atoms: _129  and  _130
REMARK   59  A    between atoms: _129  and  _132
REMARK   60  A    between atoms: _132  and  _133
REMARK   61  A    between atoms: _133  and  _134
REMARK   62  A    between atoms: _136  and  _138
REMARK   63  A    between atoms: _138  and  _139
REMARK   64  A    between atoms: _138  and  _141
REMARK   65  A    between atoms: _141  and  _142
REMARK   66  A    between atoms: _145  and  _147
REMARK   67  A    between atoms: _147  and  _148
REMARK   68  A    between atoms: _147  and  _150
REMARK   69  A    between atoms: _150  and  _151
REMARK   70  A    between atoms: _151  and  _152
REMARK   71  A    between atoms: _155  and  _157
REMARK   72  A    between atoms: _157  and  _158
REMARK   73  A    between atoms: _157  and  _160
REMARK   74  A    between atoms: _160  and  _161
REMARK   75  A    between atoms: _161  and  _163
REMARK   76  A    between atoms: _163  and  ZN_380
REMARK   77  A    between atoms: _164  and  _166
REMARK   78  A    between atoms: _166  and  _167
REMARK   79  A    between atoms: _166  and  _169
REMARK   80  A    between atoms: _171  and  _173
REMARK   81  A    between atoms: _173  and  _174
REMARK   82  A    between atoms: _177  and  _179
REMARK   83  A    between atoms: _179  and  _180
REMARK   84  A    between atoms: _179  and  _182
REMARK   85  A    between atoms: _182  and  _183
REMARK   86  A    between atoms: _183  and  _184
REMARK   87  A    between atoms: _187  and  _189
REMARK   88  A    between atoms: _189  and  _190
REMARK   89  A    between atoms: _189  and  _192
REMARK   90  A    between atoms: _192  and  _193
REMARK   91  A    between atoms: _193  and  _194
REMARK   92  A    between atoms: _194  and  _196
REMARK   93  A    between atoms: _196  and  ZN_380
REMARK   94  A    between atoms: _197  and  _199
REMARK   95  A    between atoms: _199  and  _200
REMARK   96  A    between atoms: _199  and  _202
REMARK   97  A    between atoms: _202  and  _203
REMARK   98  A    between atoms: _206  and  _208
REMARK   99  A    between atoms: _208  and  _209
REMARK  100  A    between atoms: _208  and  _211
REMARK  101  A    between atoms: _214  and  _216
REMARK  102  A    between atoms: _216  and  _217
REMARK  103  A    between atoms: _219  and  _221
REMARK  104  A    between atoms: _221  and  _222
REMARK  105  A    between atoms: _221  and  _224
REMARK  106  A    between atoms: _224  and  _225
REMARK  107  A    between atoms: _225  and  _227
REMARK  108  A    between atoms: _227  and  ZN_380
REMARK  109  A    between atoms: _228  and  _230
REMARK  110  A    between atoms: _230  and  _231
REMARK  111  A    between atoms: _230  and  _233
REMARK  112  A    between atoms: _233  and  _234
REMARK  113  A    between atoms: _237  and  _239
REMARK  114  A    between atoms: _239  and  _240
REMARK  115  A    between atoms: _239  and  _242
REMARK  116  A    between atoms: _242  and  _243
REMARK  117  A    between atoms: _246  and  _248
REMARK  118  A    between atoms: _248  and  _249
REMARK  119  A    between atoms: _248  and  _251
REMARK  120  A    between atoms: _251  and  _252
REMARK  121  A    between atoms: _252  and  _253
REMARK  122  A    between atoms: _253  and  _254
REMARK  123  A    between atoms: _254  and  _255
REMARK  124  A    between atoms: _259  and  _261
REMARK  125  A    between atoms: _261  and  _262
REMARK  126  A    between atoms: _261  and  _264
REMARK  127  A    between atoms: _264  and  _265
REMARK  128  A    between atoms: _270  and  _272
REMARK  129  A    between atoms: _272  and  _273
REMARK  130  A    between atoms: _272  and  _275
REMARK  131  A    between atoms: _275  and  _276
REMARK  132  A    between atoms: _276  and  _277
REMARK  133  A    between atoms: _282  and  _284
REMARK  134  A    between atoms: _284  and  _285
REMARK  135  A    between atoms: _284  and  _287
REMARK  136  A    between atoms: _287  and  _288
REMARK  137  A    between atoms: _288  and  _289
REMARK  138  A    between atoms: _291  and  _293
REMARK  139  A    between atoms: _293  and  _294
REMARK  140  A    between atoms: _293  and  _296
REMARK  141  A    between atoms: _296  and  _297
REMARK  142  A    between atoms: _299  and  _301
REMARK  143  A    between atoms: _301  and  _302
REMARK  144  A    between atoms: _301  and  _304
REMARK  145  A    between atoms: _304  and  _305
REMARK  146  A    between atoms: _310  and  _312
REMARK  147  A    between atoms: _312  and  _313
REMARK  148  A    between atoms: _312  and  _315
REMARK  149  A    between atoms: _315  and  _316
REMARK  150  A    between atoms: _316  and  _317
REMARK  151  A    between atoms: _317  and  _318
REMARK  152  A    between atoms: _327  and  _329
REMARK  153  A    between atoms: _329  and  _330
REMARK  154  A    between atoms: _329  and  _332
REMARK  155  A    between atoms: _332  and  _333
REMARK  156  A    between atoms: _335  and  _337
REMARK  157  A    between atoms: _337  and  _338
REMARK  158  A    between atoms: _340  and  _342
REMARK  159  A    between atoms: _342  and  _343
REMARK  160  A    between atoms: _342  and  _345
REMARK  161  A    between atoms: _345  and  _346
REMARK  162  A    between atoms: _346  and  _347
REMARK  163  A    between atoms: _350  and  _352
REMARK  164  A    between atoms: _352  and  _353
REMARK  165  A    between atoms: _352  and  _355
REMARK  166  A    between atoms: _355  and  _356
REMARK  167  A    between atoms: _356  and  _357
REMARK  168  A    between atoms: _357  and  _358
REMARK  169  A    between atoms: _358  and  _359
REMARK  170  A    between atoms: _363  and  _365
REMARK  171  A    between atoms: _365  and  _366
REMARK  172  A    between atoms: _365  and  _368
REMARK  173  A    between atoms: _368  and  _369
REMARK  174  A    between atoms: _369  and  _370
REMARK  175  A    between atoms: _370  and  _371
REMARK                            x       y       z     vdW  Elec       q    Type
REMARK                         _______ _______ _______ _____ _____    ______ ____
ROOT
ATOM      1  C   GLN A   1      23.877  33.171 -21.898  0.00  0.00    +0.238 C 
ATOM      2  O   GLN A   1      24.983  33.065 -22.415  0.00  0.00    -0.274 OA
ATOM      3  N   GLU A   2      22.768  32.765 -22.509  0.00  0.00    -0.298 N 
ATOM      4  H   GLU A   2      21.832  32.974 -22.107  0.00  0.00    +0.150 HD
ENDROOT
BRANCH   1   5
ATOM      5  CA  GLN A   1      23.767  33.708 -20.484  0.00  0.00    +0.145 C 
BRANCH   5   6
ATOM      6  N   GLN A   1      22.672  34.595 -20.258  0.00  0.00    -0.238 NA
ATOM      7  H   GLN A   1      21.768  34.240 -19.885  0.00  0.00    +0.142 HD
ENDBRANCH   5   6
BRANCH   5   8
ATOM      8  CB  GLN A   1      23.661  32.570 -19.497  0.00  0.00    +0.036 C 
BRANCH   8   9
ATOM      9  CG  GLN A   1      24.852  31.653 -19.405  0.00  0.00    +0.087 C 
BRANCH   9  10
ATOM     10  CD  GLN A   1      24.518  30.587 -18.389  0.00  0.00    +0.219 C 
ATOM     11  NE2 GLN A   1      24.833  30.874 -17.135  0.00  0.00    -0.329 N 
ATOM     12 HE21 GLN A   1      24.527  30.246 -16.365  0.00  0.00    +0.145 HD
ATOM     13 HE22 GLN A   1      25.387  31.728 -16.920  0.00  0.00    +0.145 HD
ATOM     14  OE1 GLN A   1      23.854  29.575 -18.712  0.00  0.00    -0.275 OA
ENDBRANCH   9  10
ENDBRANCH   8   9
ENDBRANCH   5   8
ENDBRANCH   1   5
BRANCH   3  15
ATOM     15  CA  GLU A   2      22.897  32.011 -23.769  0.00  0.00    +0.137 C 
BRANCH  15  16
ATOM     16  C   GLU A   2      21.867  32.456 -24.778  0.00  0.00    +0.227 C 
ATOM     17  O   GLU A   2      20.678  32.525 -24.467  0.00  0.00    -0.286 OA
ENDBRANCH  15  16
BRANCH  15  18
ATOM     18  CB  GLU A   2      22.766  30.502 -23.541  0.00  0.00    +0.039 C 
BRANCH  18  19
ATOM     19  CG  GLU A   2      23.597  29.983 -22.394  0.00  0.00    +0.116 C 
BRANCH  19  20
ATOM     20  CD  GLU A   2      23.423  28.496 -22.161  0.00  0.00    +0.365 C 
ATOM     21  OE2 GLU A   2      24.084  28.034 -21.209  0.00  0.00    -0.246 OA
ATOM     22  OE1 GLU A   2      22.623  27.814 -22.890  0.00  0.00    -0.246 OA
ENDBRANCH  19  20
ENDBRANCH  18  19
ENDBRANCH  15  18
ENDBRANCH   3  15
TORSDOF 10
REMARK  Name = ../refined-set-2016/2pu1/2pu1_pocket.pdb
REMARK  175 active torsions:
REMARK  status: ('A' for Active; 'I' for Inactive)
REMARK    1  A    between atoms: _1  and  _3
REMARK    2  A    between atoms: _3  and  _4
REMARK    3  A    between atoms: _3  and  _6
REMARK    4  A    between atoms: _6  and  _7
REMARK    5  A    between atoms: _7  and  _8
REMARK    6  A    between atoms: _8  and  _9
REMARK    7  A    between atoms: _19  and  _20
REMARK    8  A    between atoms: _25  and  _27
REMARK    9  A    between atoms: _27  and  _28
REMARK   10  A    between atoms: _27  and  _30
REMARK   11  A    between atoms: _30  and  _31
REMARK   12  A    between atoms: _33  and  _35
REMARK   13  A    between atoms: _35  and  _36
REMARK   14  A    between atoms: _38  and  _40
REMARK   15  A    between atoms: _40  and  _41
REMARK   16  A    between atoms: _44  and  _46
REMARK   17  A    between atoms: _46  and  _47
REMARK   18  A    between atoms: _46  and  _49
REMARK   19  A    between atoms: _47  and  _48
REMARK   20  A    between atoms: _47  and  _52
REMARK   21  A    between atoms: _48  and  ZN_381
REMARK   22  A    between atoms: _49  and  _50
REMARK   23  A    between atoms: _52  and  _54
REMARK   24  A    between atoms: _54  and  _55
REMARK   25  A    between atoms: _54  and  _57
REMARK   26  A    between atoms: _57  and  _58
REMARK   27  A    between atoms: _61  and  _63
REMARK   28  A    between atoms: _63  and  _64
REMARK   29  A    between atoms: _66  and  _68
REMARK   30  A    between atoms: _68  and  _69
REMARK   31  A    between atoms: _68  and  _71
REMARK   32  A    between atoms: _71  and  _72
REMARK   33  A    between atoms: _72  and  _73
REMARK   34  A    between atoms: _76  and  _78
REMARK   35  A    between atoms: _78  and  _79
REMARK   36  A    between atoms: _78  and  _81
REMARK   37  A    between atoms: _81  and  _82
REMARK   38  A    between atoms: _87  and  _89
REMARK   39  A    between atoms: _89  and  _90
REMARK   40  A    between atoms: _92  and  _94
REMARK   41  A    between atoms: _94  and  _95
REMARK   42  A    between atoms: _94  and  _97
REMARK   43  A    between atoms: _97  and  _98
REMARK   44  A    between atoms: _98  and  _99
REMARK   45  A    between atoms: _99  and  _100
REMARK   46  A    between atoms: _100  and  _101
REMARK   47  A    between atoms: _105  and  _107
REMARK   48  A    between atoms: _107  and  _108
REMARK   49  A    between atoms: _107  and  _110
REMARK   50  A    between atoms: _110  and  _111
REMARK   51  A    between atoms: _111  and  _112
REMARK   52  A    between atoms: _117  and  _119
REMARK   53  A    between atoms: _119  and  _120
REMARK   54  A    between atoms: _119  and  _122
REMARK   55  A    between atoms: _122  and  _123
REMARK   56  A    between atoms: _123  and  _124
REMARK   57  A    between atoms: _127  and  _129
REMARK   58  A    between atoms: _129  and  _130
REMARK   59  A    between atoms: _129  and  _132
REMARK   60  A    between atoms: _132  and  _133
REMARK   61  A    between atoms: _133  and  _134
REMARK   62  A    between atoms: _136  and  _138
REMARK   63  A    between atoms: _138  and  _139
REMARK   64  A    between atoms: _138  and  _141
REMARK   65  A    between atoms: _141  and  _142
REMARK   66  A    between atoms: _145  and  _147
REMARK   67  A    between atoms: _147  and  _148
REMARK   68  A    between atoms: _147  and  _150
REMARK   69  A    between atoms: _150  and  _151
REMARK   70  A    between atoms: _151  and  _152
REMARK   71  A    between atoms: _155  and  _157
REMARK   72  A    between atoms: _157  and  _158
REMARK   73  A    between atoms: _157  and  _160
REMARK   74  A    between atoms: _160  and  _161
REMARK   75  A    between atoms: _161  and  _163
REMARK   76  A    between atoms: _163  and  ZN_380
REMARK   77  A    between atoms: _164  and  _166
REMARK   78  A    between atoms: _166  and  _167
REMARK   79  A    between atoms: _166  and  _169
REMARK   80  A    between atoms: _171  and  _173
REMARK   81  A    between atoms: _173  and  _174
REMARK   82  A    between atoms: _177  and  _179
REMARK   83  A    between atoms: _179  and  _180
REMARK   84  A    between atoms: _179  and  _182
REMARK   85  A    between atoms: _182  and  _183
REMARK   86  A    between atoms: _183  and  _184
REMARK   87  A    between atoms: _187  and  _189
REMARK   88  A    between atoms: _189  and  _190
REMARK   89  A    between atoms: _189  and  _192
REMARK   90  A    between atoms: _192  and  _193
REMARK   91  A    between atoms: _193  and  _194
REMARK   92  A    between atoms: _194  and  _196
REMARK   93  A    between atoms: _196  and  ZN_380
REMARK   94  A    between atoms: _197  and  _199
REMARK   95  A    between atoms: _199  and  _200
REMARK   96  A    between atoms: _199  and  _202
REMARK   97  A    between atoms: _202  and  _203
REMARK   98  A    between atoms: _206  and  _208
REMARK   99  A    between atoms: _208  and  _209
REMARK  100  A    between atoms: _208  and  _211
REMARK  101  A    between atoms: _214  and  _216
REMARK  102  A    between atoms: _216  and  _217
REMARK  103  A    between atoms: _219  and  _221
REMARK  104  A    between atoms: _221  and  _222
REMARK  105  A    between atoms: _221  and  _224
REMARK  106  A    between atoms: _224  and  _225
REMARK  107  A    between atoms: _225  and  _227
REMARK  108  A    between atoms: _227  and  ZN_380
REMARK  109  A    between atoms: _228  and  _230
REMARK  110  A    between atoms: _230  and  _231
REMARK  111  A    between atoms: _230  and  _233
REMARK  112  A    between atoms: _233  and  _234
REMARK  113  A    between atoms: _237  and  _239
REMARK  114  A    between atoms: _239  and  _240
REMARK  115  A    between atoms: _239  and  _242
REMARK  116  A    between atoms: _242  and  _243
REMARK  117  A    between atoms: _246  and  _248
REMARK  118  A    between atoms: _248  and  _249
REMARK  119  A    between atoms: _248  and  _251
REMARK  120  A    between atoms: _251  and  _252
REMARK  121  A    between atoms: _252  and  _253
REMARK  122  A    between atoms: _253  and  _254
REMARK  123  A    between atoms: _254  and  _255
REMARK  124  A    between atoms: _259  and  _261
REMARK  125  A    between atoms: _261  and  _262
REMARK  126  A    between atoms: _261  and  _264
REMARK  127  A    between atoms: _264  and  _265
REMARK  128  A    between atoms: _270  and  _272
REMARK  129  A    between atoms: _272  and  _273
REMARK  130  A    between atoms: _272  and  _275
REMARK  131  A    between atoms: _275  and  _276
REMARK  132  A    between atoms: _276  and  _277
REMARK  133  A    between atoms: _282  and  _284
REMARK  134  A    between atoms: _284  and  _285
REMARK  135  A    between atoms: _284  and  _287
REMARK  136  A    between atoms: _287  and  _288
REMARK  137  A    between atoms: _288  and  _289
REMARK  138  A    between atoms: _291  and  _293
REMARK  139  A    between atoms: _293  and  _294
REMARK  140  A    between atoms: _293  and  _296
REMARK  141  A    between atoms: _296  and  _297
REMARK  142  A    between atoms: _299  and  _301
REMARK  143  A    between atoms: _301  and  _302
REMARK  144  A    between atoms: _301  and  _304
REMARK  145  A    between atoms: _304  and  _305
REMARK  146  A    between atoms: _310  and  _312
REMARK  147  A    between atoms: _312  and  _313
REMARK  148  A    between atoms: _312  and  _315
REMARK  149  A    between atoms: _315  and  _316
REMARK  150  A    between atoms: _316  and  _317
REMARK  151  A    between atoms: _317  and  _318
REMARK  152  A    between atoms: _327  and  _329
REMARK  153  A    between atoms: _329  and  _330
REMARK  154  A    between atoms: _329  and  _332
REMARK  155  A    between atoms: _332  and  _333
REMARK  156  A    between atoms: _335  and  _337
REMARK  157  A    between atoms: _337  and  _338
REMARK  158  A    between atoms: _340  and  _342
REMARK  159  A    between atoms: _342  and  _343
REMARK  160  A    between atoms: _342  and  _345
REMARK  161  A    between atoms: _345  and  _346
REMARK  162  A    between atoms: _346  and  _347
REMARK  163  A    between atoms: _350  and  _352
REMARK  164  A    between atoms: _352  and  _353
REMARK  165  A    between atoms: _352  and  _355
REMARK  166  A    between atoms: _355  and  _356
REMARK  167  A    between atoms: _356  and  _357
REMARK  168  A    between atoms: _357  and  _358
REMARK  169  A    between atoms: _358  and  _359
REMARK  170  A    between atoms: _363  and  _365
REMARK  171  A    between atoms: _365  and  _366
REMARK  172  A    between atoms: _365  and  _368
REMARK  173  A    between atoms: _368  and  _369
REMARK  174  A    between atoms: _369  and  _370
REMARK  175  A    between atoms: _370  and  _371
REMARK                            x       y       z     vdW  Elec       q    Type
REMARK                         _______ _______ _______ _____ _____    ______ ____
ROOT
ATOM      1  CA  MET A   1      20.964  29.954 -29.164  0.00  0.00    +0.134 C 
ENDROOT
BRANCH   1   2
ATOM      2  N   MET A   1      20.747  31.161 -28.364  0.00  0.00    -0.239 NA
ATOM      3  H   MET A   1      19.807  31.348 -27.960  0.00  0.00    +0.142 HD
ENDBRANCH   1   2
BRANCH   1   4
ATOM      4  C   MET A   1      20.177  29.932 -30.463  0.00  0.00    +0.224 C 
ATOM      5  O   MET A   1      19.120  30.538 -30.585  0.00  0.00    -0.287 OA
ENDBRANCH   1   4
BRANCH   1   6
ATOM      6  CB  MET A   1      20.574  28.685 -28.403  0.00  0.00    +0.037 C 
BRANCH   6   7
ATOM      7  CG  MET A   1      21.284  28.410 -27.080  0.00  0.00    +0.059 C 
BRANCH   7   8
ATOM      8  SD  MET A   1      20.625  26.948 -26.212  0.00  0.00    -0.139 S 
ATOM      9  CE  MET A   1      19.816  27.779 -24.833  0.00  0.00    +0.069 C 
ENDBRANCH   7   8
ENDBRANCH   6   7
ENDBRANCH   1   6
TORSDOF 5
REMARK  Name = ../refined-set-2016/2pu1/2pu1_pocket.pdb
REMARK  175 active torsions:
REMARK  status: ('A' for Active; 'I' for Inactive)
REMARK    1  A    between atoms: _1  and  _3
REMARK    2  A    between atoms: _3  and  _4
REMARK    3  A    between atoms: _3  and  _6
REMARK    4  A    between atoms: _6  and  _7
REMARK    5  A    between atoms: _7  and  _8
REMARK    6  A    between atoms: _8  and  _9
REMARK    7  A    between atoms: _19  and  _20
REMARK    8  A    between atoms: _25  and  _27
REMARK    9  A    between atoms: _27  and  _28
REMARK   10  A    between atoms: _27  and  _30
REMARK   11  A    between atoms: _30  and  _31
REMARK   12  A    between atoms: _33  and  _35
REMARK   13  A    between atoms: _35  and  _36
REMARK   14  A    between atoms: _38  and  _40
REMARK   15  A    between atoms: _40  and  _41
REMARK   16  A    between atoms: _44  and  _46
REMARK   17  A    between atoms: _46  and  _47
REMARK   18  A    between atoms: _46  and  _49
REMARK   19  A    between atoms: _47  and  _48
REMARK   20  A    between atoms: _47  and  _52
REMARK   21  A    between atoms: _48  and  ZN_381
REMARK   22  A    between atoms: _49  and  _50
REMARK   23  A    between atoms: _52  and  _54
REMARK   24  A    between atoms: _54  and  _55
REMARK   25  A    between atoms: _54  and  _57
REMARK   26  A    between atoms: _57  and  _58
REMARK   27  A    between atoms: _61  and  _63
REMARK   28  A    between atoms: _63  and  _64
REMARK   29  A    between atoms: _66  and  _68
REMARK   30  A    between atoms: _68  and  _69
REMARK   31  A    between atoms: _68  and  _71
REMARK   32  A    between atoms: _71  and  _72
REMARK   33  A    between atoms: _72  and  _73
REMARK   34  A    between atoms: _76  and  _78
REMARK   35  A    between atoms: _78  and  _79
REMARK   36  A    between atoms: _78  and  _81
REMARK   37  A    between atoms: _81  and  _82
REMARK   38  A    between atoms: _87  and  _89
REMARK   39  A    between atoms: _89  and  _90
REMARK   40  A    between atoms: _92  and  _94
REMARK   41  A    between atoms: _94  and  _95
REMARK   42  A    between atoms: _94  and  _97
REMARK   43  A    between atoms: _97  and  _98
REMARK   44  A    between atoms: _98  and  _99
REMARK   45  A    between atoms: _99  and  _100
REMARK   46  A    between atoms: _100  and  _101
REMARK   47  A    between atoms: _105  and  _107
REMARK   48  A    between atoms: _107  and  _108
REMARK   49  A    between atoms: _107  and  _110
REMARK   50  A    between atoms: _110  and  _111
REMARK   51  A    between atoms: _111  and  _112
REMARK   52  A    between atoms: _117  and  _119
REMARK   53  A    between atoms: _119  and  _120
REMARK   54  A    between atoms: _119  and  _122
REMARK   55  A    between atoms: _122  and  _123
REMARK   56  A    between atoms: _123  and  _124
REMARK   57  A    between atoms: _127  and  _129
REMARK   58  A    between atoms: _129  and  _130
REMARK   59  A    between atoms: _129  and  _132
REMARK   60  A    between atoms: _132  and  _133
REMARK   61  A    between atoms: _133  and  _134
REMARK   62  A    between atoms: _136  and  _138
REMARK   63  A    between atoms: _138  and  _139
REMARK   64  A    between atoms: _138  and  _141
REMARK   65  A    between atoms: _141  and  _142
REMARK   66  A    between atoms: _145  and  _147
REMARK   67  A    between atoms: _147  and  _148
REMARK   68  A    between atoms: _147  and  _150
REMARK   69  A    between atoms: _150  and  _151
REMARK   70  A    between atoms: _151  and  _152
REMARK   71  A    between atoms: _155  and  _157
REMARK   72  A    between atoms: _157  and  _158
REMARK   73  A    between atoms: _157  and  _160
REMARK   74  A    between atoms: _160  and  _161
REMARK   75  A    between atoms: _161  and  _163
REMARK   76  A    between atoms: _163  and  ZN_380
REMARK   77  A    between atoms: _164  and  _166
REMARK   78  A    between atoms: _166  and  _167
REMARK   79  A    between atoms: _166  and  _169
REMARK   80  A    between atoms: _171  and  _173
REMARK   81  A    between atoms: _173  and  _174
REMARK   82  A    between atoms: _177  and  _179
REMARK   83  A    between atoms: _179  and  _180
REMARK   84  A    between atoms: _179  and  _182
REMARK   85  A    between atoms: _182  and  _183
REMARK   86  A    between atoms: _183  and  _184
REMARK   87  A    between atoms: _187  and  _189
REMARK   88  A    between atoms: _189  and  _190
REMARK   89  A    between atoms: _189  and  _192
REMARK   90  A    between atoms: _192  and  _193
REMARK   91  A    between atoms: _193  and  _194
REMARK   92  A    between atoms: _194  and  _196
REMARK   93  A    between atoms: _196  and  ZN_380
REMARK   94  A    between atoms: _197  and  _199
REMARK   95  A    between atoms: _199  and  _200
REMARK   96  A    between atoms: _199  and  _202
REMARK   97  A    between atoms: _202  and  _203
REMARK   98  A    between atoms: _206  and  _208
REMARK   99  A    between atoms: _208  and  _209
REMARK  100  A    between atoms: _208  and  _211
REMARK  101  A    between atoms: _214  and  _216
REMARK  102  A    between atoms: _216  and  _217
REMARK  103  A    between atoms: _219  and  _221
REMARK  104  A    between atoms: _221  and  _222
REMARK  105  A    between atoms: _221  and  _224
REMARK  106  A    between atoms: _224  and  _225
REMARK  107  A    between atoms: _225  and  _227
REMARK  108  A    between atoms: _227  and  ZN_380
REMARK  109  A    between atoms: _228  and  _230
REMARK  110  A    between atoms: _230  and  _231
REMARK  111  A    between atoms: _230  and  _233
REMARK  112  A    between atoms: _233  and  _234
REMARK  113  A    between atoms: _237  and  _239
REMARK  114  A    between atoms: _239  and  _240
REMARK  115  A    between atoms: _239  and  _242
REMARK  116  A    between atoms: _242  and  _243
REMARK  117  A    between atoms: _246  and  _248
REMARK  118  A    between atoms: _248  and  _249
REMARK  119  A    between atoms: _248  and  _251
REMARK  120  A    between atoms: _251  and  _252
REMARK  121  A    between atoms: _252  and  _253
REMARK  122  A    between atoms: _253  and  _254
REMARK  123  A    between atoms: _254  and  _255
REMARK  124  A    between atoms: _259  and  _261
REMARK  125  A    between atoms: _261  and  _262
REMARK  126  A    between atoms: _261  and  _264
REMARK  127  A    between atoms: _264  and  _265
REMARK  128  A    between atoms: _270  and  _272
REMARK  129  A    between atoms: _272  and  _273
REMARK  130  A    between atoms: _272  and  _275
REMARK  131  A    between atoms: _275  and  _276
REMARK  132  A    between atoms: _276  and  _277
REMARK  133  A    between atoms: _282  and  _284
REMARK  134  A    between atoms: _284  and  _285
REMARK  135  A    between atoms: _284  and  _287
REMARK  136  A    between atoms: _287  and  _288
REMARK  137  A    between atoms: _288  and  _289
REMARK  138  A    between atoms: _291  and  _293
REMARK  139  A    between atoms: _293  and  _294
REMARK  140  A    between atoms: _293  and  _296
REMARK  141  A    between atoms: _296  and  _297
REMARK  142  A    between atoms: _299  and  _301
REMARK  143  A    between atoms: _301  and  _302
REMARK  144  A    between atoms: _301  and  _304
REMARK  145  A    between atoms: _304  and  _305
REMARK  146  A    between atoms: _310  and  _312
REMARK  147  A    between atoms: _312  and  _313
REMARK  148  A    between atoms: _312  and  _315
REMARK  149  A    between atoms: _315  and  _316
REMARK  150  A    between atoms: _316  and  _317
REMARK  151  A    between atoms: _317  and  _318
REMARK  152  A    between atoms: _327  and  _329
REMARK  153  A    between atoms: _329  and  _330
REMARK  154  A    between atoms: _329  and  _332
REMARK  155  A    between atoms: _332  and  _333
REMARK  156  A    between atoms: _335  and  _337
REMARK  157  A    between atoms: _337  and  _338
REMARK  158  A    between atoms: _340  and  _342
REMARK  159  A    between atoms: _342  and  _343
REMARK  160  A    between atoms: _342  and  _345
REMARK  161  A    between atoms: _345  and  _346
REMARK  162  A    between atoms: _346  and  _347
REMARK  163  A    between atoms: _350  and  _352
REMARK  164  A    between atoms: _352  and  _353
REMARK  165  A    between atoms: _352  and  _355
REMARK  166  A    between atoms: _355  and  _356
REMARK  167  A    between atoms: _356  and  _357
REMARK  168  A    between atoms: _357  and  _358
REMARK  169  A    between atoms: _358  and  _359
REMARK  170  A    between atoms: _363  and  _365
REMARK  171  A    between atoms: _365  and  _366
REMARK  172  A    between atoms: _365  and  _368
REMARK  173  A    between atoms: _368  and  _369
REMARK  174  A    between atoms: _369  and  _370
REMARK  175  A    between atoms: _370  and  _371
REMARK                            x       y       z     vdW  Elec       q    Type
REMARK                         _______ _______ _______ _____ _____    ______ ____
ROOT
ATOM      1  C   ASP A   1      32.713  27.738 -23.579  0.00  0.00    +0.239 C 
ATOM      2  O   ASP A   1      33.202  26.602 -23.640  0.00  0.00    -0.274 OA
ATOM      3  N   GLU A   2      31.555  28.057 -24.167  0.00  0.00    -0.298 N 
ATOM      4  H   GLU A   2      31.166  29.016 -24.063  0.00  0.00    +0.150 HD
ENDROOT
BRANCH   1   5
ATOM      5  CA  ASP A   1      33.392  28.815 -22.747  0.00  0.00    +0.156 C 
BRANCH   5   6
ATOM      6  N   ASP A   1      33.244  30.171 -23.277  0.00  0.00    -0.238 NA
ATOM      7  H   ASP A   1      32.865  30.911 -22.652  0.00  0.00    +0.142 HD
ENDBRANCH   5   6
BRANCH   5   8
ATOM      8  CB  ASP A   1      32.851  28.715 -21.325  0.00  0.00    +0.140 C 
BRANCH   8   9
ATOM      9  CG  ASP A   1      33.672  29.462 -20.313  0.00  0.00    +0.367 C 
ATOM     10  OD2 ASP A   1      33.117  29.660 -19.198  0.00  0.00    -0.246 OA
ATOM     11  OD1 ASP A   1      34.849  29.837 -20.575  0.00  0.00    -0.246 OA
ENDBRANCH   8   9
ENDBRANCH   5   8
ENDBRANCH   1   5
BRANCH   3  12
ATOM     12  CA  GLU A   2      30.841  27.067 -24.950  0.00  0.00    +0.137 C 
BRANCH  12  13
ATOM     13  C   GLU A   2      30.997  27.225 -26.474  0.00  0.00    +0.227 C 
ATOM     14  O   GLU A   2      30.249  26.596 -27.252  0.00  0.00    -0.286 OA
ENDBRANCH  12  13
BRANCH  12  15
ATOM     15  CB  GLU A   2      29.370  27.012 -24.525  0.00  0.00    +0.039 C 
BRANCH  15  16
ATOM     16  CG  GLU A   2      29.214  26.662 -23.036  0.00  0.00    +0.116 C 
BRANCH  16  17
ATOM     17  CD  GLU A   2      27.751  26.513 -22.652  0.00  0.00    +0.365 C 
ATOM     18  OE2 GLU A   2      27.462  26.192 -21.471  0.00  0.00    -0.246 OA
ATOM     19  OE1 GLU A   2      26.888  26.711 -23.526  0.00  0.00    -0.246 OA
ENDBRANCH  16  17
ENDBRANCH  15  16
ENDBRANCH  12  15
ENDBRANCH   3  12
TORSDOF 9
REMARK  Name = ../refined-set-2016/2pu1/2pu1_pocket.pdb
REMARK  175 active torsions:
REMARK  status: ('A' for Active; 'I' for Inactive)
REMARK    1  A    between atoms: _1  and  _3
REMARK    2  A    between atoms: _3  and  _4
REMARK    3  A    between atoms: _3  and  _6
REMARK    4  A    between atoms: _6  and  _7
REMARK    5  A    between atoms: _7  and  _8
REMARK    6  A    between atoms: _8  and  _9
REMARK    7  A    between atoms: _19  and  _20
REMARK    8  A    between atoms: _25  and  _27
REMARK    9  A    between atoms: _27  and  _28
REMARK   10  A    between atoms: _27  and  _30
REMARK   11  A    between atoms: _30  and  _31
REMARK   12  A    between atoms: _33  and  _35
REMARK   13  A    between atoms: _35  and  _36
REMARK   14  A    between atoms: _38  and  _40
REMARK   15  A    between atoms: _40  and  _41
REMARK   16  A    between atoms: _44  and  _46
REMARK   17  A    between atoms: _46  and  _47
REMARK   18  A    between atoms: _46  and  _49
REMARK   19  A    between atoms: _47  and  _48
REMARK   20  A    between atoms: _47  and  _52
REMARK   21  A    between atoms: _48  and  ZN_381
REMARK   22  A    between atoms: _49  and  _50
REMARK   23  A    between atoms: _52  and  _54
REMARK   24  A    between atoms: _54  and  _55
REMARK   25  A    between atoms: _54  and  _57
REMARK   26  A    between atoms: _57  and  _58
REMARK   27  A    between atoms: _61  and  _63
REMARK   28  A    between atoms: _63  and  _64
REMARK   29  A    between atoms: _66  and  _68
REMARK   30  A    between atoms: _68  and  _69
REMARK   31  A    between atoms: _68  and  _71
REMARK   32  A    between atoms: _71  and  _72
REMARK   33  A    between atoms: _72  and  _73
REMARK   34  A    between atoms: _76  and  _78
REMARK   35  A    between atoms: _78  and  _79
REMARK   36  A    between atoms: _78  and  _81
REMARK   37  A    between atoms: _81  and  _82
REMARK   38  A    between atoms: _87  and  _89
REMARK   39  A    between atoms: _89  and  _90
REMARK   40  A    between atoms: _92  and  _94
REMARK   41  A    between atoms: _94  and  _95
REMARK   42  A    between atoms: _94  and  _97
REMARK   43  A    between atoms: _97  and  _98
REMARK   44  A    between atoms: _98  and  _99
REMARK   45  A    between atoms: _99  and  _100
REMARK   46  A    between atoms: _100  and  _101
REMARK   47  A    between atoms: _105  and  _107
REMARK   48  A    between atoms: _107  and  _108
REMARK   49  A    between atoms: _107  and  _110
REMARK   50  A    between atoms: _110  and  _111
REMARK   51  A    between atoms: _111  and  _112
REMARK   52  A    between atoms: _117  and  _119
REMARK   53  A    between atoms: _119  and  _120
REMARK   54  A    between atoms: _119  and  _122
REMARK   55  A    between atoms: _122  and  _123
REMARK   56  A    between atoms: _123  and  _124
REMARK   57  A    between atoms: _127  and  _129
REMARK   58  A    between atoms: _129  and  _130
REMARK   59  A    between atoms: _129  and  _132
REMARK   60  A    between atoms: _132  and  _133
REMARK   61  A    between atoms: _133  and  _134
REMARK   62  A    between atoms: _136  and  _138
REMARK   63  A    between atoms: _138  and  _139
REMARK   64  A    between atoms: _138  and  _141
REMARK   65  A    between atoms: _141  and  _142
REMARK   66  A    between atoms: _145  and  _147
REMARK   67  A    between atoms: _147  and  _148
REMARK   68  A    between atoms: _147  and  _150
REMARK   69  A    between atoms: _150  and  _151
REMARK   70  A    between atoms: _151  and  _152
REMARK   71  A    between atoms: _155  and  _157
REMARK   72  A    between atoms: _157  and  _158
REMARK   73  A    between atoms: _157  and  _160
REMARK   74  A    between atoms: _160  and  _161
REMARK   75  A    between atoms: _161  and  _163
REMARK   76  A    between atoms: _163  and  ZN_380
REMARK   77  A    between atoms: _164  and  _166
REMARK   78  A    between atoms: _166  and  _167
REMARK   79  A    between atoms: _166  and  _169
REMARK   80  A    between atoms: _171  and  _173
REMARK   81  A    between atoms: _173  and  _174
REMARK   82  A    between atoms: _177  and  _179
REMARK   83  A    between atoms: _179  and  _180
REMARK   84  A    between atoms: _179  and  _182
REMARK   85  A    between atoms: _182  and  _183
REMARK   86  A    between atoms: _183  and  _184
REMARK   87  A    between atoms: _187  and  _189
REMARK   88  A    between atoms: _189  and  _190
REMARK   89  A    between atoms: _189  and  _192
REMARK   90  A    between atoms: _192  and  _193
REMARK   91  A    between atoms: _193  and  _194
REMARK   92  A    between atoms: _194  and  _196
REMARK   93  A    between atoms: _196  and  ZN_380
REMARK   94  A    between atoms: _197  and  _199
REMARK   95  A    between atoms: _199  and  _200
REMARK   96  A    between atoms: _199  and  _202
REMARK   97  A    between atoms: _202  and  _203
REMARK   98  A    between atoms: _206  and  _208
REMARK   99  A    between atoms: _208  and  _209
REMARK  100  A    between atoms: _208  and  _211
REMARK  101  A    between atoms: _214  and  _216
REMARK  102  A    between atoms: _216  and  _217
REMARK  103  A    between atoms: _219  and  _221
REMARK  104  A    between atoms: _221  and  _222
REMARK  105  A    between atoms: _221  and  _224
REMARK  106  A    between atoms: _224  and  _225
REMARK  107  A    between atoms: _225  and  _227
REMARK  108  A    between atoms: _227  and  ZN_380
REMARK  109  A    between atoms: _228  and  _230
REMARK  110  A    between atoms: _230  and  _231
REMARK  111  A    between atoms: _230  and  _233
REMARK  112  A    between atoms: _233  and  _234
REMARK  113  A    between atoms: _237  and  _239
REMARK  114  A    between atoms: _239  and  _240
REMARK  115  A    between atoms: _239  and  _242
REMARK  116  A    between atoms: _242  and  _243
REMARK  117  A    between atoms: _246  and  _248
REMARK  118  A    between atoms: _248  and  _249
REMARK  119  A    between atoms: _248  and  _251
REMARK  120  A    between atoms: _251  and  _252
REMARK  121  A    between atoms: _252  and  _253
REMARK  122  A    between atoms: _253  and  _254
REMARK  123  A    between atoms: _254  and  _255
REMARK  124  A    between atoms: _259  and  _261
REMARK  125  A    between atoms: _261  and  _262
REMARK  126  A    between atoms: _261  and  _264
REMARK  127  A    between atoms: _264  and  _265
REMARK  128  A    between atoms: _270  and  _272
REMARK  129  A    between atoms: _272  and  _273
REMARK  130  A    between atoms: _272  and  _275
REMARK  131  A    between atoms: _275  and  _276
REMARK  132  A    between atoms: _276  and  _277
REMARK  133  A    between atoms: _282  and  _284
REMARK  134  A    between atoms: _284  and  _285
REMARK  135  A    between atoms: _284  and  _287
REMARK  136  A    between atoms: _287  and  _288
REMARK  137  A    between atoms: _288  and  _289
REMARK  138  A    between atoms: _291  and  _293
REMARK  139  A    between atoms: _293  and  _294
REMARK  140  A    between atoms: _293  and  _296
REMARK  141  A    between atoms: _296  and  _297
REMARK  142  A    between atoms: _299  and  _301
REMARK  143  A    between atoms: _301  and  _302
REMARK  144  A    between atoms: _301  and  _304
REMARK  145  A    between atoms: _304  and  _305
REMARK  146  A    between atoms: _310  and  _312
REMARK  147  A    between atoms: _312  and  _313
REMARK  148  A    between atoms: _312  and  _315
REMARK  149  A    between atoms: _315  and  _316
REMARK  150  A    between atoms: _316  and  _317
REMARK  151  A    between atoms: _317  and  _318
REMARK  152  A    between atoms: _327  and  _329
REMARK  153  A    between atoms: _329  and  _330
REMARK  154  A    between atoms: _329  and  _332
REMARK  155  A    between atoms: _332  and  _333
REMARK  156  A    between atoms: _335  and  _337
REMARK  157  A    between atoms: _337  and  _338
REMARK  158  A    between atoms: _340  and  _342
REMARK  159  A    between atoms: _342  and  _343
REMARK  160  A    between atoms: _342  and  _345
REMARK  161  A    between atoms: _345  and  _346
REMARK  162  A    between atoms: _346  and  _347
REMARK  163  A    between atoms: _350  and  _352
REMARK  164  A    between atoms: _352  and  _353
REMARK  165  A    between atoms: _352  and  _355
REMARK  166  A    between atoms: _355  and  _356
REMARK  167  A    between atoms: _356  and  _357
REMARK  168  A    between atoms: _357  and  _358
REMARK  169  A    between atoms: _358  and  _359
REMARK  170  A    between atoms: _363  and  _365
REMARK  171  A    between atoms: _365  and  _366
REMARK  172  A    between atoms: _365  and  _368
REMARK  173  A    between atoms: _368  and  _369
REMARK  174  A    between atoms: _369  and  _370
REMARK  175  A    between atoms: _370  and  _371
REMARK                            x       y       z     vdW  Elec       q    Type
REMARK                         _______ _______ _______ _____ _____    ______ ____
ROOT
ATOM      1 ZN   UNK A   3      21.085  26.834 -17.788  0.00  0.00    +0.000 Zn
ATOM      2  O   UNK A   3      20.445  28.464 -16.587  0.00  0.00    +0.000 OA
ENDROOT
BRANCH   1   3
ATOM      3  O   UNK A   3      19.361  26.207 -18.643  0.00  0.00    +0.000 OA
BRANCH   3   4
ATOM      4  C   UNK A   3      18.530  26.355 -19.547  0.00  0.00    +0.000 C 
ATOM      5  O   UNK A   3      18.823  26.193 -20.745  0.00  0.00    +0.000 OA
BRANCH   4   6
ATOM      6  C   UNK A   3      17.125  26.856 -19.167  0.00  0.00    +0.000 C 
BRANCH   6   7
ATOM      7  C   UNK A   3      16.505  27.629 -20.318  0.00  0.00    +0.000 C 
BRANCH   7   8
ATOM      8  C   UNK A   3      15.319  28.495 -19.942  0.00  0.00    +0.000 C 
BRANCH   8   9
ATOM      9  C   UNK A   3      15.700  29.440 -18.794  0.00  0.00    +0.000 C 
ATOM     10  N   ASP A   2      15.347  29.047 -17.566  0.00  0.00    +0.000 N 
ATOM     11  H   ASP A   2      14.880  28.123 -17.466  0.00  0.00    +0.000 HD
ATOM     12  O   UNK A   3      16.294  30.486 -19.019  0.00  0.00    +0.000 OA
BRANCH  10  13
ATOM     13  CA  ASP A   2      15.578  29.842 -16.342  0.00  0.00    +0.000 C 
BRANCH  13  14
ATOM     14  C   ASP A   2      15.277  31.339 -16.538  0.00  0.00    +0.000 C 
ATOM     15  O   ASP A   2      16.150  32.202 -16.309  0.00  0.00    +0.000 OA
ENDBRANCH  13  14
BRANCH  13  16
ATOM     16  CB  ASP A   2      17.040  29.648 -15.813  0.00  0.00    +0.000 C 
BRANCH  16  17
ATOM     17  CG  ASP A   2      17.239  28.323 -15.109  0.00  0.00    +0.000 C 
ATOM     18  OD2 ASP A   2      16.261  27.708 -14.709  0.00  0.00    +0.000 OA
ATOM     19  OD1 ASP A   2      18.402  27.906 -14.941  0.00  0.00    +0.000 OA
ENDBRANCH  16  17
ENDBRANCH  13  16
ENDBRANCH  10  13
ENDBRANCH   8   9
BRANCH   8  20
ATOM     20  N   UNK A   3      14.863  29.176 -21.131  0.00  0.00    +0.000 NA
ATOM     21  H   UNK A   1      15.579  29.588 -21.762  0.00  0.00    +0.000 HD
ENDBRANCH   8  20
ENDBRANCH   7   8
ENDBRANCH   6   7
ENDBRANCH   4   6
ENDBRANCH   3   4
ENDBRANCH   1   3
BRANCH   1  22
ATOM     22  O   UNK A   3      20.689  25.609 -16.121  0.00  0.00    +0.000 OA
BRANCH  22  23
ATOM     23  C   UNK A   3      19.889  24.685 -15.856  0.00  0.00    +0.000 C 
ATOM     24  O   UNK A   3      20.223  23.625 -15.324  0.00  0.00    +0.000 OA
BRANCH  23  25
ATOM     25  C   UNK A   3      18.413  24.881 -16.195  0.00  0.00    +0.000 C 
BRANCH  25  26
ATOM     26  C   UNK A   3      17.474  24.194 -15.179  0.00  0.00    +0.000 C 
BRANCH  26  27
ATOM     27  N   UNK A   3      16.106  24.730 -15.260  0.00  0.00    +0.000 N 
ATOM     28  H   UNK A   3      15.881  25.674 -14.887  0.00  0.00    +0.000 HD
ATOM     29  C   ASP A   2      15.169  23.981 -15.819  0.00  0.00    +0.000 C 
ATOM     30  O   ASP A   2      15.441  22.890 -16.349  0.00  0.00    +0.000 OA
BRANCH  29  31
ATOM     31  CA  ASP A   2      13.732  24.503 -15.721  0.00  0.00    +0.000 C 
BRANCH  31  32
ATOM     32  N   ASP A   2      13.088  24.461 -17.031  0.00  0.00    +0.000 N 
ATOM     33  H   ASP A   2      12.439  23.679 -17.252  0.00  0.00    +0.000 HD
ATOM     34  C   UNK A   1      13.309  25.392 -17.944  0.00  0.00    +0.000 C 
ATOM     35  O   UNK A   1      13.888  26.455 -17.702  0.00  0.00    +0.000 OA
BRANCH  34  36
ATOM     36  C   UNK A   1      12.753  25.080 -19.329  0.00  0.00    +0.000 C 
BRANCH  36  37
ATOM     37  C   UNK A   1      13.968  24.916 -20.297  0.00  0.00    +0.000 C 
ATOM     38  C   UNK A   1      14.783  23.654 -19.985  0.00  0.00    +0.000 C 
ATOM     39  C   UNK A   1      13.520  24.961 -21.798  0.00  0.00    +0.000 C 
ENDBRANCH  36  37
BRANCH  36  40
ATOM     40  N   UNK A   1      11.855  26.162 -19.756  0.00  0.00    +0.000 NA
ATOM     41  H   UNK A   1      12.275  27.062 -20.064  0.00  0.00    +0.000 HD
ENDBRANCH  36  40
ENDBRANCH  34  36
ENDBRANCH  31  32
ENDBRANCH  29  31
ENDBRANCH  26  27
BRANCH  26  42
ATOM     42  C   UNK A   3      17.891  24.288 -13.725  0.00  0.00    +0.000 C 
ATOM     43  O   UNK A   3      17.850  23.278 -13.013  0.00  0.00    +0.000 OA
ATOM     44  N   ASP A   4      18.225  25.494 -13.250  0.00  0.00    +0.000 N 
ATOM     45  H   ASP A   4      18.342  26.293 -13.906  0.00  0.00    +0.000 HD
BRANCH  44  46
ATOM     46  CA  ASP A   4      18.427  25.698 -11.810  0.00  0.00    +0.000 C 
BRANCH  46  47
ATOM     47  C   ASP A   4      17.151  25.481 -10.969  0.00  0.00    +0.000 C 
ATOM     48  O   ASP A   4      17.242  25.141  -9.792  0.00  0.00    +0.000 OA
ENDBRANCH  46  47
BRANCH  46  49
ATOM     49  CB  ASP A   4      19.044  27.081 -11.526  0.00  0.00    +0.000 C 
BRANCH  49  50
ATOM     50  CG  ASP A   4      20.444  27.245 -12.179  0.00  0.00    +0.000 C 
ATOM     51  OD2 ASP A   4      21.181  26.241 -12.284  0.00  0.00    +0.000 OA
ATOM     52  OD1 ASP A   4      20.786  28.378 -12.565  0.00  0.00    +0.000 OA
ENDBRANCH  49  50
ENDBRANCH  46  49
ENDBRANCH  44  46
ENDBRANCH  26  42
ENDBRANCH  25  26
ENDBRANCH  23  25
ENDBRANCH  22  23
ENDBRANCH   1  22
BRANCH   1  53
ATOM     53  O   UNK A   3      21.210  28.274 -19.361  0.00  0.00    +0.000 OA
BRANCH  53  54
ATOM     54  C   UNK A   1      20.349  29.110 -19.667  0.00  0.00    +0.000 C 
ATOM     55  O   UNK A   1      19.618  29.625 -18.789  0.00  0.00    +0.000 OA
BRANCH  54  56
ATOM     56  C   UNK A   1      20.179  29.479 -21.167  0.00  0.00    +0.000 C 
BRANCH  56  57
ATOM     57  C   UNK A   1      19.099  30.550 -21.379  0.00  0.00    +0.000 C 
BRANCH  57  58
ATOM     58  C   UNK A   1      19.444  31.825 -20.637  0.00  0.00    +0.000 C 
ATOM     59  N   ASP A   2      18.496  32.292 -19.854  0.00  0.00    +0.000 N 
ATOM     60  H   ASP A   2      17.612  31.755 -19.748  0.00  0.00    +0.000 HD
ATOM     61  O   UNK A   1      20.542  32.371 -20.790  0.00  0.00    +0.000 OA
BRANCH  59  62
ATOM     62  CA  ASP A   2      18.660  33.556 -19.126  0.00  0.00    +0.000 C 
BRANCH  62  63
ATOM     63  C   ASP A   2      19.569  33.397 -17.897  0.00  0.00    +0.000 C 
ATOM     64  N   UNK A   3      19.586  32.185 -17.323  0.00  0.00    +0.000 N 
ATOM     65  H   UNK A   3      19.094  31.402 -17.799  0.00  0.00    +0.000 HD
ATOM     66  O   ASP A   2      20.262  34.361 -17.496  0.00  0.00    +0.000 OA
BRANCH  64  67
ATOM     67  C   UNK A   3      20.269  31.915 -16.051  0.00  0.00    +0.000 C 
ATOM     68  C   UNK A   3      21.753  31.672 -16.274  0.00  0.00    +0.000 C 
BRANCH  67  69
ATOM     69  C   UNK A   3      20.004  33.049 -15.035  0.00  0.00    +0.000 C 
ATOM     70  O   UNK A   3      20.927  33.609 -14.406  0.00  0.00    +0.000 OA
ENDBRANCH  67  69
ENDBRANCH  64  67
ENDBRANCH  62  63
BRANCH  62  71
ATOM     71  CB  ASP A   2      17.285  34.135 -18.744  0.00  0.00    +0.000 C 
ATOM     72  SG  ASP A   2      16.200  34.405 -20.151  0.00  0.00    +0.000 S 
ENDBRANCH  62  71
ENDBRANCH  59  62
ENDBRANCH  57  58
BRANCH  57  73
ATOM     73  N   UNK A   1      18.879  30.886 -22.784  0.00  0.00    +0.000 NA
ATOM     74  H   UNK A   1      19.631  31.358 -23.326  0.00  0.00    +0.000 HD
ENDBRANCH  57  73
ENDBRANCH  56  57
ENDBRANCH  54  56
ENDBRANCH  53  54
ENDBRANCH   1  53
TORSDOF 37
REMARK  Name = ../refined-set-2016/2pu1/2pu1_pocket.pdb
REMARK  175 active torsions:
REMARK  status: ('A' for Active; 'I' for Inactive)
REMARK    1  A    between atoms: _1  and  _3
REMARK    2  A    between atoms: _3  and  _4
REMARK    3  A    between atoms: _3  and  _6
REMARK    4  A    between atoms: _6  and  _7
REMARK    5  A    between atoms: _7  and  _8
REMARK    6  A    between atoms: _8  and  _9
REMARK    7  A    between atoms: _19  and  _20
REMARK    8  A    between atoms: _25  and  _27
REMARK    9  A    between atoms: _27  and  _28
REMARK   10  A    between atoms: _27  and  _30
REMARK   11  A    between atoms: _30  and  _31
REMARK   12  A    between atoms: _33  and  _35
REMARK   13  A    between atoms: _35  and  _36
REMARK   14  A    between atoms: _38  and  _40
REMARK   15  A    between atoms: _40  and  _41
REMARK   16  A    between atoms: _44  and  _46
REMARK   17  A    between atoms: _46  and  _47
REMARK   18  A    between atoms: _46  and  _49
REMARK   19  A    between atoms: _47  and  _48
REMARK   20  A    between atoms: _47  and  _52
REMARK   21  A    between atoms: _48  and  ZN_381
REMARK   22  A    between atoms: _49  and  _50
REMARK   23  A    between atoms: _52  and  _54
REMARK   24  A    between atoms: _54  and  _55
REMARK   25  A    between atoms: _54  and  _57
REMARK   26  A    between atoms: _57  and  _58
REMARK   27  A    between atoms: _61  and  _63
REMARK   28  A    between atoms: _63  and  _64
REMARK   29  A    between atoms: _66  and  _68
REMARK   30  A    between atoms: _68  and  _69
REMARK   31  A    between atoms: _68  and  _71
REMARK   32  A    between atoms: _71  and  _72
REMARK   33  A    between atoms: _72  and  _73
REMARK   34  A    between atoms: _76  and  _78
REMARK   35  A    between atoms: _78  and  _79
REMARK   36  A    between atoms: _78  and  _81
REMARK   37  A    between atoms: _81  and  _82
REMARK   38  A    between atoms: _87  and  _89
REMARK   39  A    between atoms: _89  and  _90
REMARK   40  A    between atoms: _92  and  _94
REMARK   41  A    between atoms: _94  and  _95
REMARK   42  A    between atoms: _94  and  _97
REMARK   43  A    between atoms: _97  and  _98
REMARK   44  A    between atoms: _98  and  _99
REMARK   45  A    between atoms: _99  and  _100
REMARK   46  A    between atoms: _100  and  _101
REMARK   47  A    between atoms: _105  and  _107
REMARK   48  A    between atoms: _107  and  _108
REMARK   49  A    between atoms: _107  and  _110
REMARK   50  A    between atoms: _110  and  _111
REMARK   51  A    between atoms: _111  and  _112
REMARK   52  A    between atoms: _117  and  _119
REMARK   53  A    between atoms: _119  and  _120
REMARK   54  A    between atoms: _119  and  _122
REMARK   55  A    between atoms: _122  and  _123
REMARK   56  A    between atoms: _123  and  _124
REMARK   57  A    between atoms: _127  and  _129
REMARK   58  A    between atoms: _129  and  _130
REMARK   59  A    between atoms: _129  and  _132
REMARK   60  A    between atoms: _132  and  _133
REMARK   61  A    between atoms: _133  and  _134
REMARK   62  A    between atoms: _136  and  _138
REMARK   63  A    between atoms: _138  and  _139
REMARK   64  A    between atoms: _138  and  _141
REMARK   65  A    between atoms: _141  and  _142
REMARK   66  A    between atoms: _145  and  _147
REMARK   67  A    between atoms: _147  and  _148
REMARK   68  A    between atoms: _147  and  _150
REMARK   69  A    between atoms: _150  and  _151
REMARK   70  A    between atoms: _151  and  _152
REMARK   71  A    between atoms: _155  and  _157
REMARK   72  A    between atoms: _157  and  _158
REMARK   73  A    between atoms: _157  and  _160
REMARK   74  A    between atoms: _160  and  _161
REMARK   75  A    between atoms: _161  and  _163
REMARK   76  A    between atoms: _163  and  ZN_380
REMARK   77  A    between atoms: _164  and  _166
REMARK   78  A    between atoms: _166  and  _167
REMARK   79  A    between atoms: _166  and  _169
REMARK   80  A    between atoms: _171  and  _173
REMARK   81  A    between atoms: _173  and  _174
REMARK   82  A    between atoms: _177  and  _179
REMARK   83  A    between atoms: _179  and  _180
REMARK   84  A    between atoms: _179  and  _182
REMARK   85  A    between atoms: _182  and  _183
REMARK   86  A    between atoms: _183  and  _184
REMARK   87  A    between atoms: _187  and  _189
REMARK   88  A    between atoms: _189  and  _190
REMARK   89  A    between atoms: _189  and  _192
REMARK   90  A    between atoms: _192  and  _193
REMARK   91  A    between atoms: _193  and  _194
REMARK   92  A    between atoms: _194  and  _196
REMARK   93  A    between atoms: _196  and  ZN_380
REMARK   94  A    between atoms: _197  and  _199
REMARK   95  A    between atoms: _199  and  _200
REMARK   96  A    between atoms: _199  and  _202
REMARK   97  A    between atoms: _202  and  _203
REMARK   98  A    between atoms: _206  and  _208
REMARK   99  A    between atoms: _208  and  _209
REMARK  100  A    between atoms: _208  and  _211
REMARK  101  A    between atoms: _214  and  _216
REMARK  102  A    between atoms: _216  and  _217
REMARK  103  A    between atoms: _219  and  _221
REMARK  104  A    between atoms: _221  and  _222
REMARK  105  A    between atoms: _221  and  _224
REMARK  106  A    between atoms: _224  and  _225
REMARK  107  A    between atoms: _225  and  _227
REMARK  108  A    between atoms: _227  and  ZN_380
REMARK  109  A    between atoms: _228  and  _230
REMARK  110  A    between atoms: _230  and  _231
REMARK  111  A    between atoms: _230  and  _233
REMARK  112  A    between atoms: _233  and  _234
REMARK  113  A    between atoms: _237  and  _239
REMARK  114  A    between atoms: _239  and  _240
REMARK  115  A    between atoms: _239  and  _242
REMARK  116  A    between atoms: _242  and  _243
REMARK  117  A    between atoms: _246  and  _248
REMARK  118  A    between atoms: _248  and  _249
REMARK  119  A    between atoms: _248  and  _251
REMARK  120  A    between atoms: _251  and  _252
REMARK  121  A    between atoms: _252  and  _253
REMARK  122  A    between atoms: _253  and  _254
REMARK  123  A    between atoms: _254  and  _255
REMARK  124  A    between atoms: _259  and  _261
REMARK  125  A    between atoms: _261  and  _262
REMARK  126  A    between atoms: _261  and  _264
REMARK  127  A    between atoms: _264  and  _265
REMARK  128  A    between atoms: _270  and  _272
REMARK  129  A    between atoms: _272  and  _273
REMARK  130  A    between atoms: _272  and  _275
REMARK  131  A    between atoms: _275  and  _276
REMARK  132  A    between atoms: _276  and  _277
REMARK  133  A    between atoms: _282  and  _284
REMARK  134  A    between atoms: _284  and  _285
REMARK  135  A    between atoms: _284  and  _287
REMARK  136  A    between atoms: _287  and  _288
REMARK  137  A    between atoms: _288  and  _289
REMARK  138  A    between atoms: _291  and  _293
REMARK  139  A    between atoms: _293  and  _294
REMARK  140  A    between atoms: _293  and  _296
REMARK  141  A    between atoms: _296  and  _297
REMARK  142  A    between atoms: _299  and  _301
REMARK  143  A    between atoms: _301  and  _302
REMARK  144  A    between atoms: _301  and  _304
REMARK  145  A    between atoms: _304  and  _305
REMARK  146  A    between atoms: _310  and  _312
REMARK  147  A    between atoms: _312  and  _313
REMARK  148  A    between atoms: _312  and  _315
REMARK  149  A    between atoms: _315  and  _316
REMARK  150  A    between atoms: _316  and  _317
REMARK  151  A    between atoms: _317  and  _318
REMARK  152  A    between atoms: _327  and  _329
REMARK  153  A    between atoms: _329  and  _330
REMARK  154  A    between atoms: _329  and  _332
REMARK  155  A    between atoms: _332  and  _333
REMARK  156  A    between atoms: _335  and  _337
REMARK  157  A    between atoms: _337  and  _338
REMARK  158  A    between atoms: _340  and  _342
REMARK  159  A    between atoms: _342  and  _343
REMARK  160  A    between atoms: _342  and  _345
REMARK  161  A    between atoms: _345  and  _346
REMARK  162  A    between atoms: _346  and  _347
REMARK  163  A    between atoms: _350  and  _352
REMARK  164  A    between atoms: _352  and  _353
REMARK  165  A    between atoms: _352  and  _355
REMARK  166  A    between atoms: _355  and  _356
REMARK  167  A    between atoms: _356  and  _357
REMARK  168  A    between atoms: _357  and  _358
REMARK  169  A    between atoms: _358  and  _359
REMARK  170  A    between atoms: _363  and  _365
REMARK  171  A    between atoms: _365  and  _366
REMARK  172  A    between atoms: _365  and  _368
REMARK  173  A    between atoms: _368  and  _369
REMARK  174  A    between atoms: _369  and  _370
REMARK  175  A    between atoms: _370  and  _371
REMARK                            x       y       z     vdW  Elec       q    Type
REMARK                         _______ _______ _______ _____ _____    ______ ____
ROOT
ATOM      1  CA  GLU A   1      22.947  34.851 -11.593  0.00  0.00    +0.134 C 
ENDROOT
BRANCH   1   2
ATOM      2  N   GLU A   1      21.608  34.226 -11.592  0.00  0.00    -0.239 NA
ATOM      3  H   GLU A   1      21.331  33.656 -12.416  0.00  0.00    +0.142 HD
ENDBRANCH   1   2
BRANCH   1   4
ATOM      4  C   GLU A   1      22.934  36.390 -11.585  0.00  0.00    +0.224 C 
ATOM      5  O   GLU A   1      23.976  37.018 -11.324  0.00  0.00    -0.287 OA
ENDBRANCH   1   4
BRANCH   1   6
ATOM      6  CB  GLU A   1      23.801  34.336 -12.774  0.00  0.00    +0.037 C 
BRANCH   6   7
ATOM      7  CG  GLU A   1      24.115  32.837 -12.813  0.00  0.00    +0.116 C 
BRANCH   7   8
ATOM      8  CD  GLU A   1      24.993  32.338 -11.690  0.00  0.00    +0.365 C 
ATOM      9  OE2 GLU A   1      25.790  33.142 -11.158  0.00  0.00    -0.246 OA
ATOM     10  OE1 GLU A   1      24.880  31.131 -11.319  0.00  0.00    -0.246 OA
ENDBRANCH   7   8
ENDBRANCH   6   7
ENDBRANCH   1   6
TORSDOF 5
REMARK  Name = ../refined-set-2016/2pu1/2pu1_pocket.pdb
REMARK  175 active torsions:
REMARK  status: ('A' for Active; 'I' for Inactive)
REMARK    1  A    between atoms: _1  and  _3
REMARK    2  A    between atoms: _3  and  _4
REMARK    3  A    between atoms: _3  and  _6
REMARK    4  A    between atoms: _6  and  _7
REMARK    5  A    between atoms: _7  and  _8
REMARK    6  A    between atoms: _8  and  _9
REMARK    7  A    between atoms: _19  and  _20
REMARK    8  A    between atoms: _25  and  _27
REMARK    9  A    between atoms: _27  and  _28
REMARK   10  A    between atoms: _27  and  _30
REMARK   11  A    between atoms: _30  and  _31
REMARK   12  A    between atoms: _33  and  _35
REMARK   13  A    between atoms: _35  and  _36
REMARK   14  A    between atoms: _38  and  _40
REMARK   15  A    between atoms: _40  and  _41
REMARK   16  A    between atoms: _44  and  _46
REMARK   17  A    between atoms: _46  and  _47
REMARK   18  A    between atoms: _46  and  _49
REMARK   19  A    between atoms: _47  and  _48
REMARK   20  A    between atoms: _47  and  _52
REMARK   21  A    between atoms: _48  and  ZN_381
REMARK   22  A    between atoms: _49  and  _50
REMARK   23  A    between atoms: _52  and  _54
REMARK   24  A    between atoms: _54  and  _55
REMARK   25  A    between atoms: _54  and  _57
REMARK   26  A    between atoms: _57  and  _58
REMARK   27  A    between atoms: _61  and  _63
REMARK   28  A    between atoms: _63  and  _64
REMARK   29  A    between atoms: _66  and  _68
REMARK   30  A    between atoms: _68  and  _69
REMARK   31  A    between atoms: _68  and  _71
REMARK   32  A    between atoms: _71  and  _72
REMARK   33  A    between atoms: _72  and  _73
REMARK   34  A    between atoms: _76  and  _78
REMARK   35  A    between atoms: _78  and  _79
REMARK   36  A    between atoms: _78  and  _81
REMARK   37  A    between atoms: _81  and  _82
REMARK   38  A    between atoms: _87  and  _89
REMARK   39  A    between atoms: _89  and  _90
REMARK   40  A    between atoms: _92  and  _94
REMARK   41  A    between atoms: _94  and  _95
REMARK   42  A    between atoms: _94  and  _97
REMARK   43  A    between atoms: _97  and  _98
REMARK   44  A    between atoms: _98  and  _99
REMARK   45  A    between atoms: _99  and  _100
REMARK   46  A    between atoms: _100  and  _101
REMARK   47  A    between atoms: _105  and  _107
REMARK   48  A    between atoms: _107  and  _108
REMARK   49  A    between atoms: _107  and  _110
REMARK   50  A    between atoms: _110  and  _111
REMARK   51  A    between atoms: _111  and  _112
REMARK   52  A    between atoms: _117  and  _119
REMARK   53  A    between atoms: _119  and  _120
REMARK   54  A    between atoms: _119  and  _122
REMARK   55  A    between atoms: _122  and  _123
REMARK   56  A    between atoms: _123  and  _124
REMARK   57  A    between atoms: _127  and  _129
REMARK   58  A    between atoms: _129  and  _130
REMARK   59  A    between atoms: _129  and  _132
REMARK   60  A    between atoms: _132  and  _133
REMARK   61  A    between atoms: _133  and  _134
REMARK   62  A    between atoms: _136  and  _138
REMARK   63  A    between atoms: _138  and  _139
REMARK   64  A    between atoms: _138  and  _141
REMARK   65  A    between atoms: _141  and  _142
REMARK   66  A    between atoms: _145  and  _147
REMARK   67  A    between atoms: _147  and  _148
REMARK   68  A    between atoms: _147  and  _150
REMARK   69  A    between atoms: _150  and  _151
REMARK   70  A    between atoms: _151  and  _152
REMARK   71  A    between atoms: _155  and  _157
REMARK   72  A    between atoms: _157  and  _158
REMARK   73  A    between atoms: _157  and  _160
REMARK   74  A    between atoms: _160  and  _161
REMARK   75  A    between atoms: _161  and  _163
REMARK   76  A    between atoms: _163  and  ZN_380
REMARK   77  A    between atoms: _164  and  _166
REMARK   78  A    between atoms: _166  and  _167
REMARK   79  A    between atoms: _166  and  _169
REMARK   80  A    between atoms: _171  and  _173
REMARK   81  A    between atoms: _173  and  _174
REMARK   82  A    between atoms: _177  and  _179
REMARK   83  A    between atoms: _179  and  _180
REMARK   84  A    between atoms: _179  and  _182
REMARK   85  A    between atoms: _182  and  _183
REMARK   86  A    between atoms: _183  and  _184
REMARK   87  A    between atoms: _187  and  _189
REMARK   88  A    between atoms: _189  and  _190
REMARK   89  A    between atoms: _189  and  _192
REMARK   90  A    between atoms: _192  and  _193
REMARK   91  A    between atoms: _193  and  _194
REMARK   92  A    between atoms: _194  and  _196
REMARK   93  A    between atoms: _196  and  ZN_380
REMARK   94  A    between atoms: _197  and  _199
REMARK   95  A    between atoms: _199  and  _200
REMARK   96  A    between atoms: _199  and  _202
REMARK   97  A    between atoms: _202  and  _203
REMARK   98  A    between atoms: _206  and  _208
REMARK   99  A    between atoms: _208  and  _209
REMARK  100  A    between atoms: _208  and  _211
REMARK  101  A    between atoms: _214  and  _216
REMARK  102  A    between atoms: _216  and  _217
REMARK  103  A    between atoms: _219  and  _221
REMARK  104  A    between atoms: _221  and  _222
REMARK  105  A    between atoms: _221  and  _224
REMARK  106  A    between atoms: _224  and  _225
REMARK  107  A    between atoms: _225  and  _227
REMARK  108  A    between atoms: _227  and  ZN_380
REMARK  109  A    between atoms: _228  and  _230
REMARK  110  A    between atoms: _230  and  _231
REMARK  111  A    between atoms: _230  and  _233
REMARK  112  A    between atoms: _233  and  _234
REMARK  113  A    between atoms: _237  and  _239
REMARK  114  A    between atoms: _239  and  _240
REMARK  115  A    between atoms: _239  and  _242
REMARK  116  A    between atoms: _242  and  _243
REMARK  117  A    between atoms: _246  and  _248
REMARK  118  A    between atoms: _248  and  _249
REMARK  119  A    between atoms: _248  and  _251
REMARK  120  A    between atoms: _251  and  _252
REMARK  121  A    between atoms: _252  and  _253
REMARK  122  A    between atoms: _253  and  _254
REMARK  123  A    between atoms: _254  and  _255
REMARK  124  A    between atoms: _259  and  _261
REMARK  125  A    between atoms: _261  and  _262
REMARK  126  A    between atoms: _261  and  _264
REMARK  127  A    between atoms: _264  and  _265
REMARK  128  A    between atoms: _270  and  _272
REMARK  129  A    between atoms: _272  and  _273
REMARK  130  A    between atoms: _272  and  _275
REMARK  131  A    between atoms: _275  and  _276
REMARK  132  A    between atoms: _276  and  _277
REMARK  133  A    between atoms: _282  and  _284
REMARK  134  A    between atoms: _284  and  _285
REMARK  135  A    between atoms: _284  and  _287
REMARK  136  A    between atoms: _287  and  _288
REMARK  137  A    between atoms: _288  and  _289
REMARK  138  A    between atoms: _291  and  _293
REMARK  139  A    between atoms: _293  and  _294
REMARK  140  A    between atoms: _293  and  _296
REMARK  141  A    between atoms: _296  and  _297
REMARK  142  A    between atoms: _299  and  _301
REMARK  143  A    between atoms: _301  and  _302
REMARK  144  A    between atoms: _301  and  _304
REMARK  145  A    between atoms: _304  and  _305
REMARK  146  A    between atoms: _310  and  _312
REMARK  147  A    between atoms: _312  and  _313
REMARK  148  A    between atoms: _312  and  _315
REMARK  149  A    between atoms: _315  and  _316
REMARK  150  A    between atoms: _316  and  _317
REMARK  151  A    between atoms: _317  and  _318
REMARK  152  A    between atoms: _327  and  _329
REMARK  153  A    between atoms: _329  and  _330
REMARK  154  A    between atoms: _329  and  _332
REMARK  155  A    between atoms: _332  and  _333
REMARK  156  A    between atoms: _335  and  _337
REMARK  157  A    between atoms: _337  and  _338
REMARK  158  A    between atoms: _340  and  _342
REMARK  159  A    between atoms: _342  and  _343
REMARK  160  A    between atoms: _342  and  _345
REMARK  161  A    between atoms: _345  and  _346
REMARK  162  A    between atoms: _346  and  _347
REMARK  163  A    between atoms: _350  and  _352
REMARK  164  A    between atoms: _352  and  _353
REMARK  165  A    between atoms: _352  and  _355
REMARK  166  A    between atoms: _355  and  _356
REMARK  167  A    between atoms: _356  and  _357
REMARK  168  A    between atoms: _357  and  _358
REMARK  169  A    between atoms: _358  and  _359
REMARK  170  A    between atoms: _363  and  _365
REMARK  171  A    between atoms: _365  and  _366
REMARK  172  A    between atoms: _365  and  _368
REMARK  173  A    between atoms: _368  and  _369
REMARK  174  A    between atoms: _369  and  _370
REMARK  175  A    between atoms: _370  and  _371
REMARK                            x       y       z     vdW  Elec       q    Type
REMARK                         _______ _______ _______ _____ _____    ______ ____
ROOT
ATOM      1  CA  LEU A   1      17.004  20.671 -18.735  0.00  0.00    +0.133 C 
ENDROOT
BRANCH   1   2
ATOM      2  N   LEU A   1      15.605  20.706 -18.306  0.00  0.00    -0.239 NA
ATOM      3  H   LEU A   1      15.305  21.360 -17.555  0.00  0.00    +0.142 HD
ENDBRANCH   1   2
BRANCH   1   4
ATOM      4  C   LEU A   1      17.719  19.514 -17.984  0.00  0.00    +0.224 C 
ATOM      5  O   LEU A   1      17.883  19.563 -16.760  0.00  0.00    -0.287 OA
ENDBRANCH   1   4
BRANCH   1   6
ATOM      6  CB  LEU A   1      17.750  22.006 -18.518  0.00  0.00    +0.025 C 
BRANCH   6   7
ATOM      7  CG  LEU A   1      19.034  22.027 -19.407  0.00  0.00    +0.002 C 
ATOM      8  CD2 LEU A   1      20.141  23.008 -18.878  0.00  0.00    +0.000 C 
ATOM      9  CD1 LEU A   1      18.724  22.342 -20.900  0.00  0.00    +0.000 C 
ENDBRANCH   6   7
ENDBRANCH   1   6
TORSDOF 4
REMARK  Name = ../refined-set-2016/2pu1/2pu1_pocket.pdb
REMARK  175 active torsions:
REMARK  status: ('A' for Active; 'I' for Inactive)
REMARK    1  A    between atoms: _1  and  _3
REMARK    2  A    between atoms: _3  and  _4
REMARK    3  A    between atoms: _3  and  _6
REMARK    4  A    between atoms: _6  and  _7
REMARK    5  A    between atoms: _7  and  _8
REMARK    6  A    between atoms: _8  and  _9
REMARK    7  A    between atoms: _19  and  _20
REMARK    8  A    between atoms: _25  and  _27
REMARK    9  A    between atoms: _27  and  _28
REMARK   10  A    between atoms: _27  and  _30
REMARK   11  A    between atoms: _30  and  _31
REMARK   12  A    between atoms: _33  and  _35
REMARK   13  A    between atoms: _35  and  _36
REMARK   14  A    between atoms: _38  and  _40
REMARK   15  A    between atoms: _40  and  _41
REMARK   16  A    between atoms: _44  and  _46
REMARK   17  A    between atoms: _46  and  _47
REMARK   18  A    between atoms: _46  and  _49
REMARK   19  A    between atoms: _47  and  _48
REMARK   20  A    between atoms: _47  and  _52
REMARK   21  A    between atoms: _48  and  ZN_381
REMARK   22  A    between atoms: _49  and  _50
REMARK   23  A    between atoms: _52  and  _54
REMARK   24  A    between atoms: _54  and  _55
REMARK   25  A    between atoms: _54  and  _57
REMARK   26  A    between atoms: _57  and  _58
REMARK   27  A    between atoms: _61  and  _63
REMARK   28  A    between atoms: _63  and  _64
REMARK   29  A    between atoms: _66  and  _68
REMARK   30  A    between atoms: _68  and  _69
REMARK   31  A    between atoms: _68  and  _71
REMARK   32  A    between atoms: _71  and  _72
REMARK   33  A    between atoms: _72  and  _73
REMARK   34  A    between atoms: _76  and  _78
REMARK   35  A    between atoms: _78  and  _79
REMARK   36  A    between atoms: _78  and  _81
REMARK   37  A    between atoms: _81  and  _82
REMARK   38  A    between atoms: _87  and  _89
REMARK   39  A    between atoms: _89  and  _90
REMARK   40  A    between atoms: _92  and  _94
REMARK   41  A    between atoms: _94  and  _95
REMARK   42  A    between atoms: _94  and  _97
REMARK   43  A    between atoms: _97  and  _98
REMARK   44  A    between atoms: _98  and  _99
REMARK   45  A    between atoms: _99  and  _100
REMARK   46  A    between atoms: _100  and  _101
REMARK   47  A    between atoms: _105  and  _107
REMARK   48  A    between atoms: _107  and  _108
REMARK   49  A    between atoms: _107  and  _110
REMARK   50  A    between atoms: _110  and  _111
REMARK   51  A    between atoms: _111  and  _112
REMARK   52  A    between atoms: _117  and  _119
REMARK   53  A    between atoms: _119  and  _120
REMARK   54  A    between atoms: _119  and  _122
REMARK   55  A    between atoms: _122  and  _123
REMARK   56  A    between atoms: _123  and  _124
REMARK   57  A    between atoms: _127  and  _129
REMARK   58  A    between atoms: _129  and  _130
REMARK   59  A    between atoms: _129  and  _132
REMARK   60  A    between atoms: _132  and  _133
REMARK   61  A    between atoms: _133  and  _134
REMARK   62  A    between atoms: _136  and  _138
REMARK   63  A    between atoms: _138  and  _139
REMARK   64  A    between atoms: _138  and  _141
REMARK   65  A    between atoms: _141  and  _142
REMARK   66  A    between atoms: _145  and  _147
REMARK   67  A    between atoms: _147  and  _148
REMARK   68  A    between atoms: _147  and  _150
REMARK   69  A    between atoms: _150  and  _151
REMARK   70  A    between atoms: _151  and  _152
REMARK   71  A    between atoms: _155  and  _157
REMARK   72  A    between atoms: _157  and  _158
REMARK   73  A    between atoms: _157  and  _160
REMARK   74  A    between atoms: _160  and  _161
REMARK   75  A    between atoms: _161  and  _163
REMARK   76  A    between atoms: _163  and  ZN_380
REMARK   77  A    between atoms: _164  and  _166
REMARK   78  A    between atoms: _166  and  _167
REMARK   79  A    between atoms: _166  and  _169
REMARK   80  A    between atoms: _171  and  _173
REMARK   81  A    between atoms: _173  and  _174
REMARK   82  A    between atoms: _177  and  _179
REMARK   83  A    between atoms: _179  and  _180
REMARK   84  A    between atoms: _179  and  _182
REMARK   85  A    between atoms: _182  and  _183
REMARK   86  A    between atoms: _183  and  _184
REMARK   87  A    between atoms: _187  and  _189
REMARK   88  A    between atoms: _189  and  _190
REMARK   89  A    between atoms: _189  and  _192
REMARK   90  A    between atoms: _192  and  _193
REMARK   91  A    between atoms: _193  and  _194
REMARK   92  A    between atoms: _194  and  _196
REMARK   93  A    between atoms: _196  and  ZN_380
REMARK   94  A    between atoms: _197  and  _199
REMARK   95  A    between atoms: _199  and  _200
REMARK   96  A    between atoms: _199  and  _202
REMARK   97  A    between atoms: _202  and  _203
REMARK   98  A    between atoms: _206  and  _208
REMARK   99  A    between atoms: _208  and  _209
REMARK  100  A    between atoms: _208  and  _211
REMARK  101  A    between atoms: _214  and  _216
REMARK  102  A    between atoms: _216  and  _217
REMARK  103  A    between atoms: _219  and  _221
REMARK  104  A    between atoms: _221  and  _222
REMARK  105  A    between atoms: _221  and  _224
REMARK  106  A    between atoms: _224  and  _225
REMARK  107  A    between atoms: _225  and  _227
REMARK  108  A    between atoms: _227  and  ZN_380
REMARK  109  A    between atoms: _228  and  _230
REMARK  110  A    between atoms: _230  and  _231
REMARK  111  A    between atoms: _230  and  _233
REMARK  112  A    between atoms: _233  and  _234
REMARK  113  A    between atoms: _237  and  _239
REMARK  114  A    between atoms: _239  and  _240
REMARK  115  A    between atoms: _239  and  _242
REMARK  116  A    between atoms: _242  and  _243
REMARK  117  A    between atoms: _246  and  _248
REMARK  118  A    between atoms: _248  and  _249
REMARK  119  A    between atoms: _248  and  _251
REMARK  120  A    between atoms: _251  and  _252
REMARK  121  A    between atoms: _252  and  _253
REMARK  122  A    between atoms: _253  and  _254
REMARK  123  A    between atoms: _254  and  _255
REMARK  124  A    between atoms: _259  and  _261
REMARK  125  A    between atoms: _261  and  _262
REMARK  126  A    between atoms: _261  and  _264
REMARK  127  A    between atoms: _264  and  _265
REMARK  128  A    between atoms: _270  and  _272
REMARK  129  A    between atoms: _272  and  _273
REMARK  130  A    between atoms: _272  and  _275
REMARK  131  A    between atoms: _275  and  _276
REMARK  132  A    between atoms: _276  and  _277
REMARK  133  A    between atoms: _282  and  _284
REMARK  134  A    between atoms: _284  and  _285
REMARK  135  A    between atoms: _284  and  _287
REMARK  136  A    between atoms: _287  and  _288
REMARK  137  A    between atoms: _288  and  _289
REMARK  138  A    between atoms: _291  and  _293
REMARK  139  A    between atoms: _293  and  _294
REMARK  140  A    between atoms: _293  and  _296
REMARK  141  A    between atoms: _296  and  _297
REMARK  142  A    between atoms: _299  and  _301
REMARK  143  A    between atoms: _301  and  _302
REMARK  144  A    between atoms: _301  and  _304
REMARK  145  A    between atoms: _304  and  _305
REMARK  146  A    between atoms: _310  and  _312
REMARK  147  A    between atoms: _312  and  _313
REMARK  148  A    between atoms: _312  and  _315
REMARK  149  A    between atoms: _315  and  _316
REMARK  150  A    between atoms: _316  and  _317
REMARK  151  A    between atoms: _317  and  _318
REMARK  152  A    between atoms: _327  and  _329
REMARK  153  A    between atoms: _329  and  _330
REMARK  154  A    between atoms: _329  and  _332
REMARK  155  A    between atoms: _332  and  _333
REMARK  156  A    between atoms: _335  and  _337
REMARK  157  A    between atoms: _337  and  _338
REMARK  158  A    between atoms: _340  and  _342
REMARK  159  A    between atoms: _342  and  _343
REMARK  160  A    between atoms: _342  and  _345
REMARK  161  A    between atoms: _345  and  _346
REMARK  162  A    between atoms: _346  and  _347
REMARK  163  A    between atoms: _350  and  _352
REMARK  164  A    between atoms: _352  and  _353
REMARK  165  A    between atoms: _352  and  _355
REMARK  166  A    between atoms: _355  and  _356
REMARK  167  A    between atoms: _356  and  _357
REMARK  168  A    between atoms: _357  and  _358
REMARK  169  A    between atoms: _358  and  _359
REMARK  170  A    between atoms: _363  and  _365
REMARK  171  A    between atoms: _365  and  _366
REMARK  172  A    between atoms: _365  and  _368
REMARK  173  A    between atoms: _368  and  _369
REMARK  174  A    between atoms: _369  and  _370
REMARK  175  A    between atoms: _370  and  _371
REMARK                            x       y       z     vdW  Elec       q    Type
REMARK                         _______ _______ _______ _____ _____    ______ ____
ROOT
ATOM      1  CG  LYS A   1      22.649  19.864 -16.930  0.00  0.00    -0.000 C 
ENDROOT
BRANCH   1   2
ATOM      2  CB  LYS A   1      22.340  18.773 -15.864  0.00  0.00    +0.025 C 
BRANCH   2   3
ATOM      3  CA  LYS A   1      22.045  17.409 -16.466  0.00  0.00    +0.133 C 
BRANCH   3   4
ATOM      4  N   LYS A   1      20.602  17.320 -16.724  0.00  0.00    -0.239 NA
ATOM      5  H   LYS A   1      19.949  17.303 -15.915  0.00  0.00    +0.142 HD
ENDBRANCH   3   4
BRANCH   3   6
ATOM      6  C   LYS A   1      22.387  16.286 -15.497  0.00  0.00    +0.224 C 
ATOM      7  O   LYS A   1      22.048  16.355 -14.291  0.00  0.00    -0.287 OA
ENDBRANCH   3   6
ENDBRANCH   2   3
ENDBRANCH   1   2
BRANCH   1   8
ATOM      8  CD  LYS A   1      22.687  21.206 -16.203  0.00  0.00    -0.024 C 
BRANCH   8   9
ATOM      9  CE  LYS A   1      23.048  22.355 -17.236  0.00  0.00    -0.086 C 
BRANCH   9  10
ATOM     10  NZ  LYS A   1      22.868  23.712 -16.594  0.00  0.00    +0.380 N 
ATOM     11  HZ1 LYS A   1      23.494  23.789 -15.767  0.00  0.00    -0.089 HD
ATOM     12  HZ2 LYS A   1      21.879  23.823 -16.293  0.00  0.00    -0.089 HD
ATOM     13  HZ3 LYS A   1      23.108  24.454 -17.282  0.00  0.00    -0.089 HD
ENDBRANCH   9  10
ENDBRANCH   8   9
ENDBRANCH   1   8
TORSDOF 7
REMARK  Name = ../refined-set-2016/2pu1/2pu1_pocket.pdb
REMARK  175 active torsions:
REMARK  status: ('A' for Active; 'I' for Inactive)
REMARK    1  A    between atoms: _1  and  _3
REMARK    2  A    between atoms: _3  and  _4
REMARK    3  A    between atoms: _3  and  _6
REMARK    4  A    between atoms: _6  and  _7
REMARK    5  A    between atoms: _7  and  _8
REMARK    6  A    between atoms: _8  and  _9
REMARK    7  A    between atoms: _19  and  _20
REMARK    8  A    between atoms: _25  and  _27
REMARK    9  A    between atoms: _27  and  _28
REMARK   10  A    between atoms: _27  and  _30
REMARK   11  A    between atoms: _30  and  _31
REMARK   12  A    between atoms: _33  and  _35
REMARK   13  A    between atoms: _35  and  _36
REMARK   14  A    between atoms: _38  and  _40
REMARK   15  A    between atoms: _40  and  _41
REMARK   16  A    between atoms: _44  and  _46
REMARK   17  A    between atoms: _46  and  _47
REMARK   18  A    between atoms: _46  and  _49
REMARK   19  A    between atoms: _47  and  _48
REMARK   20  A    between atoms: _47  and  _52
REMARK   21  A    between atoms: _48  and  ZN_381
REMARK   22  A    between atoms: _49  and  _50
REMARK   23  A    between atoms: _52  and  _54
REMARK   24  A    between atoms: _54  and  _55
REMARK   25  A    between atoms: _54  and  _57
REMARK   26  A    between atoms: _57  and  _58
REMARK   27  A    between atoms: _61  and  _63
REMARK   28  A    between atoms: _63  and  _64
REMARK   29  A    between atoms: _66  and  _68
REMARK   30  A    between atoms: _68  and  _69
REMARK   31  A    between atoms: _68  and  _71
REMARK   32  A    between atoms: _71  and  _72
REMARK   33  A    between atoms: _72  and  _73
REMARK   34  A    between atoms: _76  and  _78
REMARK   35  A    between atoms: _78  and  _79
REMARK   36  A    between atoms: _78  and  _81
REMARK   37  A    between atoms: _81  and  _82
REMARK   38  A    between atoms: _87  and  _89
REMARK   39  A    between atoms: _89  and  _90
REMARK   40  A    between atoms: _92  and  _94
REMARK   41  A    between atoms: _94  and  _95
REMARK   42  A    between atoms: _94  and  _97
REMARK   43  A    between atoms: _97  and  _98
REMARK   44  A    between atoms: _98  and  _99
REMARK   45  A    between atoms: _99  and  _100
REMARK   46  A    between atoms: _100  and  _101
REMARK   47  A    between atoms: _105  and  _107
REMARK   48  A    between atoms: _107  and  _108
REMARK   49  A    between atoms: _107  and  _110
REMARK   50  A    between atoms: _110  and  _111
REMARK   51  A    between atoms: _111  and  _112
REMARK   52  A    between atoms: _117  and  _119
REMARK   53  A    between atoms: _119  and  _120
REMARK   54  A    between atoms: _119  and  _122
REMARK   55  A    between atoms: _122  and  _123
REMARK   56  A    between atoms: _123  and  _124
REMARK   57  A    between atoms: _127  and  _129
REMARK   58  A    between atoms: _129  and  _130
REMARK   59  A    between atoms: _129  and  _132
REMARK   60  A    between atoms: _132  and  _133
REMARK   61  A    between atoms: _133  and  _134
REMARK   62  A    between atoms: _136  and  _138
REMARK   63  A    between atoms: _138  and  _139
REMARK   64  A    between atoms: _138  and  _141
REMARK   65  A    between atoms: _141  and  _142
REMARK   66  A    between atoms: _145  and  _147
REMARK   67  A    between atoms: _147  and  _148
REMARK   68  A    between atoms: _147  and  _150
REMARK   69  A    between atoms: _150  and  _151
REMARK   70  A    between atoms: _151  and  _152
REMARK   71  A    between atoms: _155  and  _157
REMARK   72  A    between atoms: _157  and  _158
REMARK   73  A    between atoms: _157  and  _160
REMARK   74  A    between atoms: _160  and  _161
REMARK   75  A    between atoms: _161  and  _163
REMARK   76  A    between atoms: _163  and  ZN_380
REMARK   77  A    between atoms: _164  and  _166
REMARK   78  A    between atoms: _166  and  _167
REMARK   79  A    between atoms: _166  and  _169
REMARK   80  A    between atoms: _171  and  _173
REMARK   81  A    between atoms: _173  and  _174
REMARK   82  A    between atoms: _177  and  _179
REMARK   83  A    between atoms: _179  and  _180
REMARK   84  A    between atoms: _179  and  _182
REMARK   85  A    between atoms: _182  and  _183
REMARK   86  A    between atoms: _183  and  _184
REMARK   87  A    between atoms: _187  and  _189
REMARK   88  A    between atoms: _189  and  _190
REMARK   89  A    between atoms: _189  and  _192
REMARK   90  A    between atoms: _192  and  _193
REMARK   91  A    between atoms: _193  and  _194
REMARK   92  A    between atoms: _194  and  _196
REMARK   93  A    between atoms: _196  and  ZN_380
REMARK   94  A    between atoms: _197  and  _199
REMARK   95  A    between atoms: _199  and  _200
REMARK   96  A    between atoms: _199  and  _202
REMARK   97  A    between atoms: _202  and  _203
REMARK   98  A    between atoms: _206  and  _208
REMARK   99  A    between atoms: _208  and  _209
REMARK  100  A    between atoms: _208  and  _211
REMARK  101  A    between atoms: _214  and  _216
REMARK  102  A    between atoms: _216  and  _217
REMARK  103  A    between atoms: _219  and  _221
REMARK  104  A    between atoms: _221  and  _222
REMARK  105  A    between atoms: _221  and  _224
REMARK  106  A    between atoms: _224  and  _225
REMARK  107  A    between atoms: _225  and  _227
REMARK  108  A    between atoms: _227  and  ZN_380
REMARK  109  A    between atoms: _228  and  _230
REMARK  110  A    between atoms: _230  and  _231
REMARK  111  A    between atoms: _230  and  _233
REMARK  112  A    between atoms: _233  and  _234
REMARK  113  A    between atoms: _237  and  _239
REMARK  114  A    between atoms: _239  and  _240
REMARK  115  A    between atoms: _239  and  _242
REMARK  116  A    between atoms: _242  and  _243
REMARK  117  A    between atoms: _246  and  _248
REMARK  118  A    between atoms: _248  and  _249
REMARK  119  A    between atoms: _248  and  _251
REMARK  120  A    between atoms: _251  and  _252
REMARK  121  A    between atoms: _252  and  _253
REMARK  122  A    between atoms: _253  and  _254
REMARK  123  A    between atoms: _254  and  _255
REMARK  124  A    between atoms: _259  and  _261
REMARK  125  A    between atoms: _261  and  _262
REMARK  126  A    between atoms: _261  and  _264
REMARK  127  A    between atoms: _264  and  _265
REMARK  128  A    between atoms: _270  and  _272
REMARK  129  A    between atoms: _272  and  _273
REMARK  130  A    between atoms: _272  and  _275
REMARK  131  A    between atoms: _275  and  _276
REMARK  132  A    between atoms: _276  and  _277
REMARK  133  A    between atoms: _282  and  _284
REMARK  134  A    between atoms: _284  and  _285
REMARK  135  A    between atoms: _284  and  _287
REMARK  136  A    between atoms: _287  and  _288
REMARK  137  A    between atoms: _288  and  _289
REMARK  138  A    between atoms: _291  and  _293
REMARK  139  A    between atoms: _293  and  _294
REMARK  140  A    between atoms: _293  and  _296
REMARK  141  A    between atoms: _296  and  _297
REMARK  142  A    between atoms: _299  and  _301
REMARK  143  A    between atoms: _301  and  _302
REMARK  144  A    between atoms: _301  and  _304
REMARK  145  A    between atoms: _304  and  _305
REMARK  146  A    between atoms: _310  and  _312
REMARK  147  A    between atoms: _312  and  _313
REMARK  148  A    between atoms: _312  and  _315
REMARK  149  A    between atoms: _315  and  _316
REMARK  150  A    between atoms: _316  and  _317
REMARK  151  A    between atoms: _317  and  _318
REMARK  152  A    between atoms: _327  and  _329
REMARK  153  A    between atoms: _329  and  _330
REMARK  154  A    between atoms: _329  and  _332
REMARK  155  A    between atoms: _332  and  _333
REMARK  156  A    between atoms: _335  and  _337
REMARK  157  A    between atoms: _337  and  _338
REMARK  158  A    between atoms: _340  and  _342
REMARK  159  A    between atoms: _342  and  _343
REMARK  160  A    between atoms: _342  and  _345
REMARK  161  A    between atoms: _345  and  _346
REMARK  162  A    between atoms: _346  and  _347
REMARK  163  A    between atoms: _350  and  _352
REMARK  164  A    between atoms: _352  and  _353
REMARK  165  A    between atoms: _352  and  _355
REMARK  166  A    between atoms: _355  and  _356
REMARK  167  A    between atoms: _356  and  _357
REMARK  168  A    between atoms: _357  and  _358
REMARK  169  A    between atoms: _358  and  _359
REMARK  170  A    between atoms: _363  and  _365
REMARK  171  A    between atoms: _365  and  _366
REMARK  172  A    between atoms: _365  and  _368
REMARK  173  A    between atoms: _368  and  _369
REMARK  174  A    between atoms: _369  and  _370
REMARK  175  A    between atoms: _370  and  _371
REMARK                            x       y       z     vdW  Elec       q    Type
REMARK                         _______ _______ _______ _____ _____    ______ ____
ROOT
ATOM      1  C   ASN A   1      25.052  16.822 -11.857  0.00  0.00    +0.239 C 
ATOM      2  O   ASN A   1      25.640  17.173 -10.827  0.00  0.00    -0.274 OA
ATOM      3  N   GLN A   2      23.801  17.199 -12.162  0.00  0.00    -0.298 N 
ATOM      4  H   GLN A   2      23.408  16.952 -13.093  0.00  0.00    +0.150 HD
ENDROOT
BRANCH   1   5
ATOM      5  CA  ASN A   1      25.735  15.852 -12.823  0.00  0.00    +0.154 C 
BRANCH   5   6
ATOM      6  N   ASN A   1      24.939  15.438 -14.022  0.00  0.00    -0.238 NA
ATOM      7  H   ASN A   1      25.075  15.928 -14.929  0.00  0.00    +0.142 HD
ENDBRANCH   5   6
BRANCH   5   8
ATOM      8  CB  ASN A   1      27.146  16.336 -13.197  0.00  0.00    +0.111 C 
BRANCH   8   9
ATOM      9  CG  ASN A   1      27.260  17.888 -13.293  0.00  0.00    +0.221 C 
ATOM     10  ND2 ASN A   1      28.150  18.471 -12.485  0.00  0.00    -0.329 N 
ATOM     11 HD21 ASN A   1      28.744  17.890 -11.860  0.00  0.00    +0.145 HD
ATOM     12 HD22 ASN A   1      28.249  19.506 -12.481  0.00  0.00    +0.145 HD
ATOM     13  OD1 ASN A   1      26.531  18.528 -14.054  0.00  0.00    -0.275 OA
ENDBRANCH   8   9
ENDBRANCH   5   8
ENDBRANCH   1   5
BRANCH   3  14
ATOM     14  CA  GLN A   2      22.977  17.950 -11.215  0.00  0.00    +0.137 C 
BRANCH  14  15
ATOM     15  C   GLN A   2      22.378  17.006 -10.173  0.00  0.00    +0.227 C 
ATOM     16  O   GLN A   2      22.026  17.430  -9.086  0.00  0.00    -0.286 OA
ENDBRANCH  14  15
BRANCH  14  17
ATOM     17  CB  GLN A   2      21.851  18.730 -11.919  0.00  0.00    +0.037 C 
BRANCH  17  18
ATOM     18  CG  GLN A   2      22.330  20.071 -12.493  0.00  0.00    +0.087 C 
BRANCH  18  19
ATOM     19  CD  GLN A   2      21.158  20.849 -13.115  0.00  0.00    +0.219 C 
ATOM     20  NE2 GLN A   2      21.254  22.169 -13.063  0.00  0.00    -0.329 N 
ATOM     21 HE21 GLN A   2      22.102  22.613 -12.656  0.00  0.00    +0.145 HD
ATOM     22 HE22 GLN A   2      20.482  22.761 -13.429  0.00  0.00    +0.145 HD
ATOM     23  OE1 GLN A   2      20.152  20.252 -13.598  0.00  0.00    -0.275 OA
ENDBRANCH  18  19
ENDBRANCH  17  18
ENDBRANCH  14  17
ENDBRANCH   3  14
TORSDOF 9
REMARK  Name = ../refined-set-2016/2pu1/2pu1_pocket.pdb
REMARK  175 active torsions:
REMARK  status: ('A' for Active; 'I' for Inactive)
REMARK    1  A    between atoms: _1  and  _3
REMARK    2  A    between atoms: _3  and  _4
REMARK    3  A    between atoms: _3  and  _6
REMARK    4  A    between atoms: _6  and  _7
REMARK    5  A    between atoms: _7  and  _8
REMARK    6  A    between atoms: _8  and  _9
REMARK    7  A    between atoms: _19  and  _20
REMARK    8  A    between atoms: _25  and  _27
REMARK    9  A    between atoms: _27  and  _28
REMARK   10  A    between atoms: _27  and  _30
REMARK   11  A    between atoms: _30  and  _31
REMARK   12  A    between atoms: _33  and  _35
REMARK   13  A    between atoms: _35  and  _36
REMARK   14  A    between atoms: _38  and  _40
REMARK   15  A    between atoms: _40  and  _41
REMARK   16  A    between atoms: _44  and  _46
REMARK   17  A    between atoms: _46  and  _47
REMARK   18  A    between atoms: _46  and  _49
REMARK   19  A    between atoms: _47  and  _48
REMARK   20  A    between atoms: _47  and  _52
REMARK   21  A    between atoms: _48  and  ZN_381
REMARK   22  A    between atoms: _49  and  _50
REMARK   23  A    between atoms: _52  and  _54
REMARK   24  A    between atoms: _54  and  _55
REMARK   25  A    between atoms: _54  and  _57
REMARK   26  A    between atoms: _57  and  _58
REMARK   27  A    between atoms: _61  and  _63
REMARK   28  A    between atoms: _63  and  _64
REMARK   29  A    between atoms: _66  and  _68
REMARK   30  A    between atoms: _68  and  _69
REMARK   31  A    between atoms: _68  and  _71
REMARK   32  A    between atoms: _71  and  _72
REMARK   33  A    between atoms: _72  and  _73
REMARK   34  A    between atoms: _76  and  _78
REMARK   35  A    between atoms: _78  and  _79
REMARK   36  A    between atoms: _78  and  _81
REMARK   37  A    between atoms: _81  and  _82
REMARK   38  A    between atoms: _87  and  _89
REMARK   39  A    between atoms: _89  and  _90
REMARK   40  A    between atoms: _92  and  _94
REMARK   41  A    between atoms: _94  and  _95
REMARK   42  A    between atoms: _94  and  _97
REMARK   43  A    between atoms: _97  and  _98
REMARK   44  A    between atoms: _98  and  _99
REMARK   45  A    between atoms: _99  and  _100
REMARK   46  A    between atoms: _100  and  _101
REMARK   47  A    between atoms: _105  and  _107
REMARK   48  A    between atoms: _107  and  _108
REMARK   49  A    between atoms: _107  and  _110
REMARK   50  A    between atoms: _110  and  _111
REMARK   51  A    between atoms: _111  and  _112
REMARK   52  A    between atoms: _117  and  _119
REMARK   53  A    between atoms: _119  and  _120
REMARK   54  A    between atoms: _119  and  _122
REMARK   55  A    between atoms: _122  and  _123
REMARK   56  A    between atoms: _123  and  _124
REMARK   57  A    between atoms: _127  and  _129
REMARK   58  A    between atoms: _129  and  _130
REMARK   59  A    between atoms: _129  and  _132
REMARK   60  A    between atoms: _132  and  _133
REMARK   61  A    between atoms: _133  and  _134
REMARK   62  A    between atoms: _136  and  _138
REMARK   63  A    between atoms: _138  and  _139
REMARK   64  A    between atoms: _138  and  _141
REMARK   65  A    between atoms: _141  and  _142
REMARK   66  A    between atoms: _145  and  _147
REMARK   67  A    between atoms: _147  and  _148
REMARK   68  A    between atoms: _147  and  _150
REMARK   69  A    between atoms: _150  and  _151
REMARK   70  A    between atoms: _151  and  _152
REMARK   71  A    between atoms: _155  and  _157
REMARK   72  A    between atoms: _157  and  _158
REMARK   73  A    between atoms: _157  and  _160
REMARK   74  A    between atoms: _160  and  _161
REMARK   75  A    between atoms: _161  and  _163
REMARK   76  A    between atoms: _163  and  ZN_380
REMARK   77  A    between atoms: _164  and  _166
REMARK   78  A    between atoms: _166  and  _167
REMARK   79  A    between atoms: _166  and  _169
REMARK   80  A    between atoms: _171  and  _173
REMARK   81  A    between atoms: _173  and  _174
REMARK   82  A    between atoms: _177  and  _179
REMARK   83  A    between atoms: _179  and  _180
REMARK   84  A    between atoms: _179  and  _182
REMARK   85  A    between atoms: _182  and  _183
REMARK   86  A    between atoms: _183  and  _184
REMARK   87  A    between atoms: _187  and  _189
REMARK   88  A    between atoms: _189  and  _190
REMARK   89  A    between atoms: _189  and  _192
REMARK   90  A    between atoms: _192  and  _193
REMARK   91  A    between atoms: _193  and  _194
REMARK   92  A    between atoms: _194  and  _196
REMARK   93  A    between atoms: _196  and  ZN_380
REMARK   94  A    between atoms: _197  and  _199
REMARK   95  A    between atoms: _199  and  _200
REMARK   96  A    between atoms: _199  and  _202
REMARK   97  A    between atoms: _202  and  _203
REMARK   98  A    between atoms: _206  and  _208
REMARK   99  A    between atoms: _208  and  _209
REMARK  100  A    between atoms: _208  and  _211
REMARK  101  A    between atoms: _214  and  _216
REMARK  102  A    between atoms: _216  and  _217
REMARK  103  A    between atoms: _219  and  _221
REMARK  104  A    between atoms: _221  and  _222
REMARK  105  A    between atoms: _221  and  _224
REMARK  106  A    between atoms: _224  and  _225
REMARK  107  A    between atoms: _225  and  _227
REMARK  108  A    between atoms: _227  and  ZN_380
REMARK  109  A    between atoms: _228  and  _230
REMARK  110  A    between atoms: _230  and  _231
REMARK  111  A    between atoms: _230  and  _233
REMARK  112  A    between atoms: _233  and  _234
REMARK  113  A    between atoms: _237  and  _239
REMARK  114  A    between atoms: _239  and  _240
REMARK  115  A    between atoms: _239  and  _242
REMARK  116  A    between atoms: _242  and  _243
REMARK  117  A    between atoms: _246  and  _248
REMARK  118  A    between atoms: _248  and  _249
REMARK  119  A    between atoms: _248  and  _251
REMARK  120  A    between atoms: _251  and  _252
REMARK  121  A    between atoms: _252  and  _253
REMARK  122  A    between atoms: _253  and  _254
REMARK  123  A    between atoms: _254  and  _255
REMARK  124  A    between atoms: _259  and  _261
REMARK  125  A    between atoms: _261  and  _262
REMARK  126  A    between atoms: _261  and  _264
REMARK  127  A    between atoms: _264  and  _265
REMARK  128  A    between atoms: _270  and  _272
REMARK  129  A    between atoms: _272  and  _273
REMARK  130  A    between atoms: _272  and  _275
REMARK  131  A    between atoms: _275  and  _276
REMARK  132  A    between atoms: _276  and  _277
REMARK  133  A    between atoms: _282  and  _284
REMARK  134  A    between atoms: _284  and  _285
REMARK  135  A    between atoms: _284  and  _287
REMARK  136  A    between atoms: _287  and  _288
REMARK  137  A    between atoms: _288  and  _289
REMARK  138  A    between atoms: _291  and  _293
REMARK  139  A    between atoms: _293  and  _294
REMARK  140  A    between atoms: _293  and  _296
REMARK  141  A    between atoms: _296  and  _297
REMARK  142  A    between atoms: _299  and  _301
REMARK  143  A    between atoms: _301  and  _302
REMARK  144  A    between atoms: _301  and  _304
REMARK  145  A    between atoms: _304  and  _305
REMARK  146  A    between atoms: _310  and  _312
REMARK  147  A    between atoms: _312  and  _313
REMARK  148  A    between atoms: _312  and  _315
REMARK  149  A    between atoms: _315  and  _316
REMARK  150  A    between atoms: _316  and  _317
REMARK  151  A    between atoms: _317  and  _318
REMARK  152  A    between atoms: _327  and  _329
REMARK  153  A    between atoms: _329  and  _330
REMARK  154  A    between atoms: _329  and  _332
REMARK  155  A    between atoms: _332  and  _333
REMARK  156  A    between atoms: _335  and  _337
REMARK  157  A    between atoms: _337  and  _338
REMARK  158  A    between atoms: _340  and  _342
REMARK  159  A    between atoms: _342  and  _343
REMARK  160  A    between atoms: _342  and  _345
REMARK  161  A    between atoms: _345  and  _346
REMARK  162  A    between atoms: _346  and  _347
REMARK  163  A    between atoms: _350  and  _352
REMARK  164  A    between atoms: _352  and  _353
REMARK  165  A    between atoms: _352  and  _355
REMARK  166  A    between atoms: _355  and  _356
REMARK  167  A    between atoms: _356  and  _357
REMARK  168  A    between atoms: _357  and  _358
REMARK  169  A    between atoms: _358  and  _359
REMARK  170  A    between atoms: _363  and  _365
REMARK  171  A    between atoms: _365  and  _366
REMARK  172  A    between atoms: _365  and  _368
REMARK  173  A    between atoms: _368  and  _369
REMARK  174  A    between atoms: _369  and  _370
REMARK  175  A    between atoms: _370  and  _371
REMARK                            x       y       z     vdW  Elec       q    Type
REMARK                         _______ _______ _______ _____ _____    ______ ____
ROOT
ATOM      1  CA  MET A   1      16.457  18.911 -23.393  0.00  0.00    +0.134 C 
ENDROOT
BRANCH   1   2
ATOM      2  N   MET A   1      15.312  18.478 -22.625  0.00  0.00    -0.239 NA
ATOM      3  H   MET A   1      15.125  18.927 -21.705  0.00  0.00    +0.142 HD
ENDBRANCH   1   2
BRANCH   1   4
ATOM      4  C   MET A   1      17.668  18.422 -22.599  0.00  0.00    +0.224 C 
ATOM      5  O   MET A   1      17.994  18.938 -21.526  0.00  0.00    -0.287 OA
ENDBRANCH   1   4
BRANCH   1   6
ATOM      6  CB  MET A   1      16.493  20.438 -23.535  0.00  0.00    +0.037 C 
BRANCH   6   7
ATOM      7  CG  MET A   1      17.757  20.908 -24.278  0.00  0.00    +0.059 C 
BRANCH   7   8
ATOM      8  SD  MET A   1      17.852  22.688 -24.571  0.00  0.00    -0.139 S 
ATOM      9  CE  MET A   1      16.298  23.091 -25.411  0.00  0.00    +0.069 C 
ENDBRANCH   7   8
ENDBRANCH   6   7
ENDBRANCH   1   6
TORSDOF 5
REMARK  Name = ../refined-set-2016/2pu1/2pu1_pocket.pdb
REMARK  175 active torsions:
REMARK  status: ('A' for Active; 'I' for Inactive)
REMARK    1  A    between atoms: _1  and  _3
REMARK    2  A    between atoms: _3  and  _4
REMARK    3  A    between atoms: _3  and  _6
REMARK    4  A    between atoms: _6  and  _7
REMARK    5  A    between atoms: _7  and  _8
REMARK    6  A    between atoms: _8  and  _9
REMARK    7  A    between atoms: _19  and  _20
REMARK    8  A    between atoms: _25  and  _27
REMARK    9  A    between atoms: _27  and  _28
REMARK   10  A    between atoms: _27  and  _30
REMARK   11  A    between atoms: _30  and  _31
REMARK   12  A    between atoms: _33  and  _35
REMARK   13  A    between atoms: _35  and  _36
REMARK   14  A    between atoms: _38  and  _40
REMARK   15  A    between atoms: _40  and  _41
REMARK   16  A    between atoms: _44  and  _46
REMARK   17  A    between atoms: _46  and  _47
REMARK   18  A    between atoms: _46  and  _49
REMARK   19  A    between atoms: _47  and  _48
REMARK   20  A    between atoms: _47  and  _52
REMARK   21  A    between atoms: _48  and  ZN_381
REMARK   22  A    between atoms: _49  and  _50
REMARK   23  A    between atoms: _52  and  _54
REMARK   24  A    between atoms: _54  and  _55
REMARK   25  A    between atoms: _54  and  _57
REMARK   26  A    between atoms: _57  and  _58
REMARK   27  A    between atoms: _61  and  _63
REMARK   28  A    between atoms: _63  and  _64
REMARK   29  A    between atoms: _66  and  _68
REMARK   30  A    between atoms: _68  and  _69
REMARK   31  A    between atoms: _68  and  _71
REMARK   32  A    between atoms: _71  and  _72
REMARK   33  A    between atoms: _72  and  _73
REMARK   34  A    between atoms: _76  and  _78
REMARK   35  A    between atoms: _78  and  _79
REMARK   36  A    between atoms: _78  and  _81
REMARK   37  A    between atoms: _81  and  _82
REMARK   38  A    between atoms: _87  and  _89
REMARK   39  A    between atoms: _89  and  _90
REMARK   40  A    between atoms: _92  and  _94
REMARK   41  A    between atoms: _94  and  _95
REMARK   42  A    between atoms: _94  and  _97
REMARK   43  A    between atoms: _97  and  _98
REMARK   44  A    between atoms: _98  and  _99
REMARK   45  A    between atoms: _99  and  _100
REMARK   46  A    between atoms: _100  and  _101
REMARK   47  A    between atoms: _105  and  _107
REMARK   48  A    between atoms: _107  and  _108
REMARK   49  A    between atoms: _107  and  _110
REMARK   50  A    between atoms: _110  and  _111
REMARK   51  A    between atoms: _111  and  _112
REMARK   52  A    between atoms: _117  and  _119
REMARK   53  A    between atoms: _119  and  _120
REMARK   54  A    between atoms: _119  and  _122
REMARK   55  A    between atoms: _122  and  _123
REMARK   56  A    between atoms: _123  and  _124
REMARK   57  A    between atoms: _127  and  _129
REMARK   58  A    between atoms: _129  and  _130
REMARK   59  A    between atoms: _129  and  _132
REMARK   60  A    between atoms: _132  and  _133
REMARK   61  A    between atoms: _133  and  _134
REMARK   62  A    between atoms: _136  and  _138
REMARK   63  A    between atoms: _138  and  _139
REMARK   64  A    between atoms: _138  and  _141
REMARK   65  A    between atoms: _141  and  _142
REMARK   66  A    between atoms: _145  and  _147
REMARK   67  A    between atoms: _147  and  _148
REMARK   68  A    between atoms: _147  and  _150
REMARK   69  A    between atoms: _150  and  _151
REMARK   70  A    between atoms: _151  and  _152
REMARK   71  A    between atoms: _155  and  _157
REMARK   72  A    between atoms: _157  and  _158
REMARK   73  A    between atoms: _157  and  _160
REMARK   74  A    between atoms: _160  and  _161
REMARK   75  A    between atoms: _161  and  _163
REMARK   76  A    between atoms: _163  and  ZN_380
REMARK   77  A    between atoms: _164  and  _166
REMARK   78  A    between atoms: _166  and  _167
REMARK   79  A    between atoms: _166  and  _169
REMARK   80  A    between atoms: _171  and  _173
REMARK   81  A    between atoms: _173  and  _174
REMARK   82  A    between atoms: _177  and  _179
REMARK   83  A    between atoms: _179  and  _180
REMARK   84  A    between atoms: _179  and  _182
REMARK   85  A    between atoms: _182  and  _183
REMARK   86  A    between atoms: _183  and  _184
REMARK   87  A    between atoms: _187  and  _189
REMARK   88  A    between atoms: _189  and  _190
REMARK   89  A    between atoms: _189  and  _192
REMARK   90  A    between atoms: _192  and  _193
REMARK   91  A    between atoms: _193  and  _194
REMARK   92  A    between atoms: _194  and  _196
REMARK   93  A    between atoms: _196  and  ZN_380
REMARK   94  A    between atoms: _197  and  _199
REMARK   95  A    between atoms: _199  and  _200
REMARK   96  A    between atoms: _199  and  _202
REMARK   97  A    between atoms: _202  and  _203
REMARK   98  A    between atoms: _206  and  _208
REMARK   99  A    between atoms: _208  and  _209
REMARK  100  A    between atoms: _208  and  _211
REMARK  101  A    between atoms: _214  and  _216
REMARK  102  A    between atoms: _216  and  _217
REMARK  103  A    between atoms: _219  and  _221
REMARK  104  A    between atoms: _221  and  _222
REMARK  105  A    between atoms: _221  and  _224
REMARK  106  A    between atoms: _224  and  _225
REMARK  107  A    between atoms: _225  and  _227
REMARK  108  A    between atoms: _227  and  ZN_380
REMARK  109  A    between atoms: _228  and  _230
REMARK  110  A    between atoms: _230  and  _231
REMARK  111  A    between atoms: _230  and  _233
REMARK  112  A    between atoms: _233  and  _234
REMARK  113  A    between atoms: _237  and  _239
REMARK  114  A    between atoms: _239  and  _240
REMARK  115  A    between atoms: _239  and  _242
REMARK  116  A    between atoms: _242  and  _243
REMARK  117  A    between atoms: _246  and  _248
REMARK  118  A    between atoms: _248  and  _249
REMARK  119  A    between atoms: _248  and  _251
REMARK  120  A    between atoms: _251  and  _252
REMARK  121  A    between atoms: _252  and  _253
REMARK  122  A    between atoms: _253  and  _254
REMARK  123  A    between atoms: _254  and  _255
REMARK  124  A    between atoms: _259  and  _261
REMARK  125  A    between atoms: _261  and  _262
REMARK  126  A    between atoms: _261  and  _264
REMARK  127  A    between atoms: _264  and  _265
REMARK  128  A    between atoms: _270  and  _272
REMARK  129  A    between atoms: _272  and  _273
REMARK  130  A    between atoms: _272  and  _275
REMARK  131  A    between atoms: _275  and  _276
REMARK  132  A    between atoms: _276  and  _277
REMARK  133  A    between atoms: _282  and  _284
REMARK  134  A    between atoms: _284  and  _285
REMARK  135  A    between atoms: _284  and  _287
REMARK  136  A    between atoms: _287  and  _288
REMARK  137  A    between atoms: _288  and  _289
REMARK  138  A    between atoms: _291  and  _293
REMARK  139  A    between atoms: _293  and  _294
REMARK  140  A    between atoms: _293  and  _296
REMARK  141  A    between atoms: _296  and  _297
REMARK  142  A    between atoms: _299  and  _301
REMARK  143  A    between atoms: _301  and  _302
REMARK  144  A    between atoms: _301  and  _304
REMARK  145  A    between atoms: _304  and  _305
REMARK  146  A    between atoms: _310  and  _312
REMARK  147  A    between atoms: _312  and  _313
REMARK  148  A    between atoms: _312  and  _315
REMARK  149  A    between atoms: _315  and  _316
REMARK  150  A    between atoms: _316  and  _317
REMARK  151  A    between atoms: _317  and  _318
REMARK  152  A    between atoms: _327  and  _329
REMARK  153  A    between atoms: _329  and  _330
REMARK  154  A    between atoms: _329  and  _332
REMARK  155  A    between atoms: _332  and  _333
REMARK  156  A    between atoms: _335  and  _337
REMARK  157  A    between atoms: _337  and  _338
REMARK  158  A    between atoms: _340  and  _342
REMARK  159  A    between atoms: _342  and  _343
REMARK  160  A    between atoms: _342  and  _345
REMARK  161  A    between atoms: _345  and  _346
REMARK  162  A    between atoms: _346  and  _347
REMARK  163  A    between atoms: _350  and  _352
REMARK  164  A    between atoms: _352  and  _353
REMARK  165  A    between atoms: _352  and  _355
REMARK  166  A    between atoms: _355  and  _356
REMARK  167  A    between atoms: _356  and  _357
REMARK  168  A    between atoms: _357  and  _358
REMARK  169  A    between atoms: _358  and  _359
REMARK  170  A    between atoms: _363  and  _365
REMARK  171  A    between atoms: _365  and  _366
REMARK  172  A    between atoms: _365  and  _368
REMARK  173  A    between atoms: _368  and  _369
REMARK  174  A    between atoms: _369  and  _370
REMARK  175  A    between atoms: _370  and  _371
REMARK                            x       y       z     vdW  Elec       q    Type
REMARK                         _______ _______ _______ _____ _____    ______ ____
ROOT
ATOM      1  CA  ARG A   3      27.759  21.906 -18.601  0.00  0.00    +0.149 C 
ENDROOT
BRANCH   1   2
ATOM      2  C   ARG A   3      28.700  22.877 -19.301  0.00  0.00    +0.241 C 
ATOM      3  N   SER A   4      28.815  24.091 -18.765  0.00  0.00    -0.295 N 
ATOM      4  H   SER A   4      28.279  24.336 -17.908  0.00  0.00    +0.150 HD
ATOM      5  O   ARG A   3      29.292  22.534 -20.320  0.00  0.00    -0.273 OA
BRANCH   3   6
ATOM      6  CA  SER A   4      29.709  25.091 -19.394  0.00  0.00    +0.178 C 
BRANCH   6   7
ATOM      7  C   SER A   4      31.181  24.603 -19.280  0.00  0.00    +0.243 C 
ATOM      8  N   GLY A   5      31.482  23.780 -18.251  0.00  0.00    -0.295 N 
ATOM      9  H   GLY A   5      30.777  23.643 -17.499  0.00  0.00    +0.150 HD
ATOM     10  O   SER A   4      31.988  24.938 -20.150  0.00  0.00    -0.273 OA
BRANCH   8  11
ATOM     11  CA  GLY A   5      32.790  23.057 -18.149  0.00  0.00    +0.176 C 
BRANCH  11  12
ATOM     12  C   GLY A   5      32.591  21.621 -18.645  0.00  0.00    +0.243 C 
ATOM     13  O   GLY A   5      31.922  20.806 -17.987  0.00  0.00    -0.273 OA
ATOM     14  N   GLU A   6      33.096  21.345 -19.851  0.00  0.00    -0.298 N 
ATOM     15  H   GLU A   6      33.610  22.082 -20.375  0.00  0.00    +0.150 HD
BRANCH  14  16
ATOM     16  CA  GLU A   6      32.935  20.026 -20.438  0.00  0.00    +0.137 C 
BRANCH  16  17
ATOM     17  C   GLU A   6      34.261  19.295 -20.621  0.00  0.00    +0.227 C 
ATOM     18  O   GLU A   6      35.339  19.826 -20.345  0.00  0.00    -0.286 OA
ENDBRANCH  16  17
BRANCH  16  19
ATOM     19  CB  GLU A   6      32.157  20.130 -21.771  0.00  0.00    +0.039 C 
BRANCH  19  20
ATOM     20  CG  GLU A   6      30.617  19.949 -21.604  0.00  0.00    +0.116 C 
BRANCH  20  21
ATOM     21  CD  GLU A   6      30.240  18.563 -21.057  0.00  0.00    +0.365 C 
ATOM     22  OE2 GLU A   6      29.130  18.403 -20.494  0.00  0.00    -0.246 OA
ATOM     23  OE1 GLU A   6      31.031  17.618 -21.245  0.00  0.00    -0.246 OA
ENDBRANCH  20  21
ENDBRANCH  19  20
ENDBRANCH  16  19
ENDBRANCH  14  16
ENDBRANCH  11  12
ENDBRANCH   8  11
ENDBRANCH   6   7
BRANCH   6  24
ATOM     24  CB  SER A   4      29.515  26.509 -18.786  0.00  0.00    +0.166 C 
BRANCH  24  25
ATOM     25  OG  SER A   4      29.808  26.499 -17.391  0.00  0.00    -0.380 OA
ATOM     26  H   SER A   4      29.201  25.866 -16.932  0.00  0.00    +0.211 HD
ENDBRANCH  24  25
ENDBRANCH   6  24
ENDBRANCH   3   6
ENDBRANCH   1   2
BRANCH   1  28
ATOM     27  C   HIS A   2      26.244  20.610 -20.056  0.00  0.00    +0.241 C 
ATOM     28  N   ARG A   3      27.444  20.773 -19.500  0.00  0.00    -0.297 N 
ATOM     29  H   ARG A   3      28.189  20.077 -19.706  0.00  0.00    +0.150 HD
ATOM     30  O   HIS A   2      25.201  21.150 -19.614  0.00  0.00    -0.273 OA
BRANCH  27  31
ATOM     31  CA  HIS A   2      26.190  19.717 -21.315  0.00  0.00    +0.155 C 
BRANCH  31  34
ATOM     32  C   SER A   1      23.854  18.925 -21.230  0.00  0.00    +0.241 C 
ATOM     33  O   SER A   1      24.068  18.111 -20.295  0.00  0.00    -0.274 OA
ATOM     34  N   HIS A   2      24.815  19.618 -21.837  0.00  0.00    -0.297 N 
ATOM     35  H   HIS A   2      24.585  20.113 -22.722  0.00  0.00    +0.150 HD
BRANCH  32  36
ATOM     36  CA  SER A   1      22.428  19.289 -21.684  0.00  0.00    +0.174 C 
BRANCH  36  37
ATOM     37  N   SER A   1      21.460  18.161 -21.697  0.00  0.00    -0.236 NA
ATOM     38  H   SER A   1      21.419  17.522 -20.877  0.00  0.00    +0.142 HD
ENDBRANCH  36  37
BRANCH  36  39
ATOM     39  CB  SER A   1      21.880  20.413 -20.765  0.00  0.00    +0.163 C 
BRANCH  39  40
ATOM     40  OG  SER A   1      22.759  21.546 -20.690  0.00  0.00    -0.380 OA
ATOM     41  H   SER A   1      23.635  21.259 -20.329  0.00  0.00    +0.211 HD
ENDBRANCH  39  40
ENDBRANCH  36  39
ENDBRANCH  32  36
ENDBRANCH  31  34
BRANCH  31  42
ATOM     42  CB  HIS A   2      27.087  20.294 -22.412  0.00  0.00    +0.076 C 
BRANCH  42  43
ATOM     43  CG  HIS A   2      26.692  21.691 -22.844  0.00  0.00    +0.082 A 
ATOM     44  CD2 HIS A   2      25.627  22.469 -22.510  0.00  0.00    +0.115 A 
ATOM     45  NE2 HIS A   2      25.756  23.653 -23.188  0.00  0.00    -0.221 NA
ATOM     46  CE1 HIS A   2      26.876  23.620 -23.901  0.00  0.00    +0.199 A 
ATOM     47  ND1 HIS A   2      27.466  22.447 -23.706  0.00  0.00    -0.227 NA
ENDBRANCH  42  43
ENDBRANCH  31  42
ENDBRANCH  27  31
ENDBRANCH   1  28
BRANCH   1  48
ATOM     48  CB  ARG A   3      28.475  21.434 -17.313  0.00  0.00    +0.033 C 
BRANCH  48  49
ATOM     49  CG  ARG A   3      27.628  20.408 -16.482  0.00  0.00    +0.045 C 
BRANCH  49  50
ATOM     50  CD  ARG A   3      26.198  20.882 -16.185  0.00  0.00    +0.174 C 
BRANCH  50  51
ATOM     51  NE  ARG A   3      26.011  22.197 -15.510  0.00  0.00    -0.265 N 
ATOM     52  CZ  ARG A   3      25.646  22.315 -14.223  0.00  0.00    +0.342 C 
ATOM     53  NH2 ARG A   3      25.510  21.200 -13.443  0.00  0.00    -0.292 N 
ATOM     54 HH21 ARG A   3      25.227  21.294 -12.447  0.00  0.00    +0.255 HD
ATOM     55 HH22 ARG A   3      25.689  20.258 -13.846  0.00  0.00    +0.255 HD
ATOM     56  NH1 ARG A   3      25.382  23.507 -13.724  0.00  0.00    -0.292 N 
ATOM     57 HH11 ARG A   3      25.099  23.603 -12.728  0.00  0.00    +0.255 HD
ATOM     58 HH12 ARG A   3      25.457  24.351 -14.327  0.00  0.00    +0.255 HD
ATOM     59  HE  ARG A   3      26.171  23.064 -16.061  0.00  0.00    +0.259 HD
ENDBRANCH  50  51
ENDBRANCH  49  50
ENDBRANCH  48  49
ENDBRANCH   1  48
TORSDOF 25
REMARK  Name = ../refined-set-2016/2pu1/2pu1_pocket.pdb
REMARK  175 active torsions:
REMARK  status: ('A' for Active; 'I' for Inactive)
REMARK    1  A    between atoms: _1  and  _3
REMARK    2  A    between atoms: _3  and  _4
REMARK    3  A    between atoms: _3  and  _6
REMARK    4  A    between atoms: _6  and  _7
REMARK    5  A    between atoms: _7  and  _8
REMARK    6  A    between atoms: _8  and  _9
REMARK    7  A    between atoms: _19  and  _20
REMARK    8  A    between atoms: _25  and  _27
REMARK    9  A    between atoms: _27  and  _28
REMARK   10  A    between atoms: _27  and  _30
REMARK   11  A    between atoms: _30  and  _31
REMARK   12  A    between atoms: _33  and  _35
REMARK   13  A    between atoms: _35  and  _36
REMARK   14  A    between atoms: _38  and  _40
REMARK   15  A    between atoms: _40  and  _41
REMARK   16  A    between atoms: _44  and  _46
REMARK   17  A    between atoms: _46  and  _47
REMARK   18  A    between atoms: _46  and  _49
REMARK   19  A    between atoms: _47  and  _48
REMARK   20  A    between atoms: _47  and  _52
REMARK   21  A    between atoms: _48  and  ZN_381
REMARK   22  A    between atoms: _49  and  _50
REMARK   23  A    between atoms: _52  and  _54
REMARK   24  A    between atoms: _54  and  _55
REMARK   25  A    between atoms: _54  and  _57
REMARK   26  A    between atoms: _57  and  _58
REMARK   27  A    between atoms: _61  and  _63
REMARK   28  A    between atoms: _63  and  _64
REMARK   29  A    between atoms: _66  and  _68
REMARK   30  A    between atoms: _68  and  _69
REMARK   31  A    between atoms: _68  and  _71
REMARK   32  A    between atoms: _71  and  _72
REMARK   33  A    between atoms: _72  and  _73
REMARK   34  A    between atoms: _76  and  _78
REMARK   35  A    between atoms: _78  and  _79
REMARK   36  A    between atoms: _78  and  _81
REMARK   37  A    between atoms: _81  and  _82
REMARK   38  A    between atoms: _87  and  _89
REMARK   39  A    between atoms: _89  and  _90
REMARK   40  A    between atoms: _92  and  _94
REMARK   41  A    between atoms: _94  and  _95
REMARK   42  A    between atoms: _94  and  _97
REMARK   43  A    between atoms: _97  and  _98
REMARK   44  A    between atoms: _98  and  _99
REMARK   45  A    between atoms: _99  and  _100
REMARK   46  A    between atoms: _100  and  _101
REMARK   47  A    between atoms: _105  and  _107
REMARK   48  A    between atoms: _107  and  _108
REMARK   49  A    between atoms: _107  and  _110
REMARK   50  A    between atoms: _110  and  _111
REMARK   51  A    between atoms: _111  and  _112
REMARK   52  A    between atoms: _117  and  _119
REMARK   53  A    between atoms: _119  and  _120
REMARK   54  A    between atoms: _119  and  _122
REMARK   55  A    between atoms: _122  and  _123
REMARK   56  A    between atoms: _123  and  _124
REMARK   57  A    between atoms: _127  and  _129
REMARK   58  A    between atoms: _129  and  _130
REMARK   59  A    between atoms: _129  and  _132
REMARK   60  A    between atoms: _132  and  _133
REMARK   61  A    between atoms: _133  and  _134
REMARK   62  A    between atoms: _136  and  _138
REMARK   63  A    between atoms: _138  and  _139
REMARK   64  A    between atoms: _138  and  _141
REMARK   65  A    between atoms: _141  and  _142
REMARK   66  A    between atoms: _145  and  _147
REMARK   67  A    between atoms: _147  and  _148
REMARK   68  A    between atoms: _147  and  _150
REMARK   69  A    between atoms: _150  and  _151
REMARK   70  A    between atoms: _151  and  _152
REMARK   71  A    between atoms: _155  and  _157
REMARK   72  A    between atoms: _157  and  _158
REMARK   73  A    between atoms: _157  and  _160
REMARK   74  A    between atoms: _160  and  _161
REMARK   75  A    between atoms: _161  and  _163
REMARK   76  A    between atoms: _163  and  ZN_380
REMARK   77  A    between atoms: _164  and  _166
REMARK   78  A    between atoms: _166  and  _167
REMARK   79  A    between atoms: _166  and  _169
REMARK   80  A    between atoms: _171  and  _173
REMARK   81  A    between atoms: _173  and  _174
REMARK   82  A    between atoms: _177  and  _179
REMARK   83  A    between atoms: _179  and  _180
REMARK   84  A    between atoms: _179  and  _182
REMARK   85  A    between atoms: _182  and  _183
REMARK   86  A    between atoms: _183  and  _184
REMARK   87  A    between atoms: _187  and  _189
REMARK   88  A    between atoms: _189  and  _190
REMARK   89  A    between atoms: _189  and  _192
REMARK   90  A    between atoms: _192  and  _193
REMARK   91  A    between atoms: _193  and  _194
REMARK   92  A    between atoms: _194  and  _196
REMARK   93  A    between atoms: _196  and  ZN_380
REMARK   94  A    between atoms: _197  and  _199
REMARK   95  A    between atoms: _199  and  _200
REMARK   96  A    between atoms: _199  and  _202
REMARK   97  A    between atoms: _202  and  _203
REMARK   98  A    between atoms: _206  and  _208
REMARK   99  A    between atoms: _208  and  _209
REMARK  100  A    between atoms: _208  and  _211
REMARK  101  A    between atoms: _214  and  _216
REMARK  102  A    between atoms: _216  and  _217
REMARK  103  A    between atoms: _219  and  _221
REMARK  104  A    between atoms: _221  and  _222
REMARK  105  A    between atoms: _221  and  _224
REMARK  106  A    between atoms: _224  and  _225
REMARK  107  A    between atoms: _225  and  _227
REMARK  108  A    between atoms: _227  and  ZN_380
REMARK  109  A    between atoms: _228  and  _230
REMARK  110  A    between atoms: _230  and  _231
REMARK  111  A    between atoms: _230  and  _233
REMARK  112  A    between atoms: _233  and  _234
REMARK  113  A    between atoms: _237  and  _239
REMARK  114  A    between atoms: _239  and  _240
REMARK  115  A    between atoms: _239  and  _242
REMARK  116  A    between atoms: _242  and  _243
REMARK  117  A    between atoms: _246  and  _248
REMARK  118  A    between atoms: _248  and  _249
REMARK  119  A    between atoms: _248  and  _251
REMARK  120  A    between atoms: _251  and  _252
REMARK  121  A    between atoms: _252  and  _253
REMARK  122  A    between atoms: _253  and  _254
REMARK  123  A    between atoms: _254  and  _255
REMARK  124  A    between atoms: _259  and  _261
REMARK  125  A    between atoms: _261  and  _262
REMARK  126  A    between atoms: _261  and  _264
REMARK  127  A    between atoms: _264  and  _265
REMARK  128  A    between atoms: _270  and  _272
REMARK  129  A    between atoms: _272  and  _273
REMARK  130  A    between atoms: _272  and  _275
REMARK  131  A    between atoms: _275  and  _276
REMARK  132  A    between atoms: _276  and  _277
REMARK  133  A    between atoms: _282  and  _284
REMARK  134  A    between atoms: _284  and  _285
REMARK  135  A    between atoms: _284  and  _287
REMARK  136  A    between atoms: _287  and  _288
REMARK  137  A    between atoms: _288  and  _289
REMARK  138  A    between atoms: _291  and  _293
REMARK  139  A    between atoms: _293  and  _294
REMARK  140  A    between atoms: _293  and  _296
REMARK  141  A    between atoms: _296  and  _297
REMARK  142  A    between atoms: _299  and  _301
REMARK  143  A    between atoms: _301  and  _302
REMARK  144  A    between atoms: _301  and  _304
REMARK  145  A    between atoms: _304  and  _305
REMARK  146  A    between atoms: _310  and  _312
REMARK  147  A    between atoms: _312  and  _313
REMARK  148  A    between atoms: _312  and  _315
REMARK  149  A    between atoms: _315  and  _316
REMARK  150  A    between atoms: _316  and  _317
REMARK  151  A    between atoms: _317  and  _318
REMARK  152  A    between atoms: _327  and  _329
REMARK  153  A    between atoms: _329  and  _330
REMARK  154  A    between atoms: _329  and  _332
REMARK  155  A    between atoms: _332  and  _333
REMARK  156  A    between atoms: _335  and  _337
REMARK  157  A    between atoms: _337  and  _338
REMARK  158  A    between atoms: _340  and  _342
REMARK  159  A    between atoms: _342  and  _343
REMARK  160  A    between atoms: _342  and  _345
REMARK  161  A    between atoms: _345  and  _346
REMARK  162  A    between atoms: _346  and  _347
REMARK  163  A    between atoms: _350  and  _352
REMARK  164  A    between atoms: _352  and  _353
REMARK  165  A    between atoms: _352  and  _355
REMARK  166  A    between atoms: _355  and  _356
REMARK  167  A    between atoms: _356  and  _357
REMARK  168  A    between atoms: _357  and  _358
REMARK  169  A    between atoms: _358  and  _359
REMARK  170  A    between atoms: _363  and  _365
REMARK  171  A    between atoms: _365  and  _366
REMARK  172  A    between atoms: _365  and  _368
REMARK  173  A    between atoms: _368  and  _369
REMARK  174  A    between atoms: _369  and  _370
REMARK  175  A    between atoms: _370  and  _371
REMARK                            x       y       z     vdW  Elec       q    Type
REMARK                         _______ _______ _______ _____ _____    ______ ____
ROOT
ATOM      1  CG  LYS A   1      21.485  22.944 -23.936  0.00  0.00    -0.000 C 
ENDROOT
BRANCH   1   2
ATOM      2  CB  LYS A   1      21.671  22.943 -25.400  0.00  0.00    +0.025 C 
BRANCH   2   3
ATOM      3  CA  LYS A   1      22.161  21.630 -26.064  0.00  0.00    +0.133 C 
BRANCH   3   4
ATOM      4  N   LYS A   1      21.261  20.482 -25.949  0.00  0.00    -0.239 NA
ATOM      5  H   LYS A   1      21.107  20.023 -25.029  0.00  0.00    +0.142 HD
ENDBRANCH   3   4
BRANCH   3   6
ATOM      6  C   LYS A   1      23.544  21.168 -25.614  0.00  0.00    +0.224 C 
ATOM      7  O   LYS A   1      23.738  20.641 -24.507  0.00  0.00    -0.287 OA
ENDBRANCH   3   6
ENDBRANCH   2   3
ENDBRANCH   1   2
BRANCH   1   8
ATOM      8  CD  LYS A   1      21.275  24.420 -23.419  0.00  0.00    -0.024 C 
BRANCH   8   9
ATOM      9  CE  LYS A   1      21.898  24.493 -22.018  0.00  0.00    -0.086 C 
BRANCH   9  10
ATOM     10  NZ  LYS A   1      21.542  25.768 -21.312  0.00  0.00    +0.380 N 
ATOM     11  HZ1 LYS A   1      21.983  25.776 -20.370  0.00  0.00    -0.089 HD
ATOM     12  HZ2 LYS A   1      20.509  25.831 -21.213  0.00  0.00    -0.089 HD
ATOM     13  HZ3 LYS A   1      21.888  26.578 -21.865  0.00  0.00    -0.089 HD
ENDBRANCH   9  10
ENDBRANCH   8   9
ENDBRANCH   1   8
TORSDOF 7
REMARK  Name = ../refined-set-2016/2pu1/2pu1_pocket.pdb
REMARK  175 active torsions:
REMARK  status: ('A' for Active; 'I' for Inactive)
REMARK    1  A    between atoms: _1  and  _3
REMARK    2  A    between atoms: _3  and  _4
REMARK    3  A    between atoms: _3  and  _6
REMARK    4  A    between atoms: _6  and  _7
REMARK    5  A    between atoms: _7  and  _8
REMARK    6  A    between atoms: _8  and  _9
REMARK    7  A    between atoms: _19  and  _20
REMARK    8  A    between atoms: _25  and  _27
REMARK    9  A    between atoms: _27  and  _28
REMARK   10  A    between atoms: _27  and  _30
REMARK   11  A    between atoms: _30  and  _31
REMARK   12  A    between atoms: _33  and  _35
REMARK   13  A    between atoms: _35  and  _36
REMARK   14  A    between atoms: _38  and  _40
REMARK   15  A    between atoms: _40  and  _41
REMARK   16  A    between atoms: _44  and  _46
REMARK   17  A    between atoms: _46  and  _47
REMARK   18  A    between atoms: _46  and  _49
REMARK   19  A    between atoms: _47  and  _48
REMARK   20  A    between atoms: _47  and  _52
REMARK   21  A    between atoms: _48  and  ZN_381
REMARK   22  A    between atoms: _49  and  _50
REMARK   23  A    between atoms: _52  and  _54
REMARK   24  A    between atoms: _54  and  _55
REMARK   25  A    between atoms: _54  and  _57
REMARK   26  A    between atoms: _57  and  _58
REMARK   27  A    between atoms: _61  and  _63
REMARK   28  A    between atoms: _63  and  _64
REMARK   29  A    between atoms: _66  and  _68
REMARK   30  A    between atoms: _68  and  _69
REMARK   31  A    between atoms: _68  and  _71
REMARK   32  A    between atoms: _71  and  _72
REMARK   33  A    between atoms: _72  and  _73
REMARK   34  A    between atoms: _76  and  _78
REMARK   35  A    between atoms: _78  and  _79
REMARK   36  A    between atoms: _78  and  _81
REMARK   37  A    between atoms: _81  and  _82
REMARK   38  A    between atoms: _87  and  _89
REMARK   39  A    between atoms: _89  and  _90
REMARK   40  A    between atoms: _92  and  _94
REMARK   41  A    between atoms: _94  and  _95
REMARK   42  A    between atoms: _94  and  _97
REMARK   43  A    between atoms: _97  and  _98
REMARK   44  A    between atoms: _98  and  _99
REMARK   45  A    between atoms: _99  and  _100
REMARK   46  A    between atoms: _100  and  _101
REMARK   47  A    between atoms: _105  and  _107
REMARK   48  A    between atoms: _107  and  _108
REMARK   49  A    between atoms: _107  and  _110
REMARK   50  A    between atoms: _110  and  _111
REMARK   51  A    between atoms: _111  and  _112
REMARK   52  A    between atoms: _117  and  _119
REMARK   53  A    between atoms: _119  and  _120
REMARK   54  A    between atoms: _119  and  _122
REMARK   55  A    between atoms: _122  and  _123
REMARK   56  A    between atoms: _123  and  _124
REMARK   57  A    between atoms: _127  and  _129
REMARK   58  A    between atoms: _129  and  _130
REMARK   59  A    between atoms: _129  and  _132
REMARK   60  A    between atoms: _132  and  _133
REMARK   61  A    between atoms: _133  and  _134
REMARK   62  A    between atoms: _136  and  _138
REMARK   63  A    between atoms: _138  and  _139
REMARK   64  A    between atoms: _138  and  _141
REMARK   65  A    between atoms: _141  and  _142
REMARK   66  A    between atoms: _145  and  _147
REMARK   67  A    between atoms: _147  and  _148
REMARK   68  A    between atoms: _147  and  _150
REMARK   69  A    between atoms: _150  and  _151
REMARK   70  A    between atoms: _151  and  _152
REMARK   71  A    between atoms: _155  and  _157
REMARK   72  A    between atoms: _157  and  _158
REMARK   73  A    between atoms: _157  and  _160
REMARK   74  A    between atoms: _160  and  _161
REMARK   75  A    between atoms: _161  and  _163
REMARK   76  A    between atoms: _163  and  ZN_380
REMARK   77  A    between atoms: _164  and  _166
REMARK   78  A    between atoms: _166  and  _167
REMARK   79  A    between atoms: _166  and  _169
REMARK   80  A    between atoms: _171  and  _173
REMARK   81  A    between atoms: _173  and  _174
REMARK   82  A    between atoms: _177  and  _179
REMARK   83  A    between atoms: _179  and  _180
REMARK   84  A    between atoms: _179  and  _182
REMARK   85  A    between atoms: _182  and  _183
REMARK   86  A    between atoms: _183  and  _184
REMARK   87  A    between atoms: _187  and  _189
REMARK   88  A    between atoms: _189  and  _190
REMARK   89  A    between atoms: _189  and  _192
REMARK   90  A    between atoms: _192  and  _193
REMARK   91  A    between atoms: _193  and  _194
REMARK   92  A    between atoms: _194  and  _196
REMARK   93  A    between atoms: _196  and  ZN_380
REMARK   94  A    between atoms: _197  and  _199
REMARK   95  A    between atoms: _199  and  _200
REMARK   96  A    between atoms: _199  and  _202
REMARK   97  A    between atoms: _202  and  _203
REMARK   98  A    between atoms: _206  and  _208
REMARK   99  A    between atoms: _208  and  _209
REMARK  100  A    between atoms: _208  and  _211
REMARK  101  A    between atoms: _214  and  _216
REMARK  102  A    between atoms: _216  and  _217
REMARK  103  A    between atoms: _219  and  _221
REMARK  104  A    between atoms: _221  and  _222
REMARK  105  A    between atoms: _221  and  _224
REMARK  106  A    between atoms: _224  and  _225
REMARK  107  A    between atoms: _225  and  _227
REMARK  108  A    between atoms: _227  and  ZN_380
REMARK  109  A    between atoms: _228  and  _230
REMARK  110  A    between atoms: _230  and  _231
REMARK  111  A    between atoms: _230  and  _233
REMARK  112  A    between atoms: _233  and  _234
REMARK  113  A    between atoms: _237  and  _239
REMARK  114  A    between atoms: _239  and  _240
REMARK  115  A    between atoms: _239  and  _242
REMARK  116  A    between atoms: _242  and  _243
REMARK  117  A    between atoms: _246  and  _248
REMARK  118  A    between atoms: _248  and  _249
REMARK  119  A    between atoms: _248  and  _251
REMARK  120  A    between atoms: _251  and  _252
REMARK  121  A    between atoms: _252  and  _253
REMARK  122  A    between atoms: _253  and  _254
REMARK  123  A    between atoms: _254  and  _255
REMARK  124  A    between atoms: _259  and  _261
REMARK  125  A    between atoms: _261  and  _262
REMARK  126  A    between atoms: _261  and  _264
REMARK  127  A    between atoms: _264  and  _265
REMARK  128  A    between atoms: _270  and  _272
REMARK  129  A    between atoms: _272  and  _273
REMARK  130  A    between atoms: _272  and  _275
REMARK  131  A    between atoms: _275  and  _276
REMARK  132  A    between atoms: _276  and  _277
REMARK  133  A    between atoms: _282  and  _284
REMARK  134  A    between atoms: _284  and  _285
REMARK  135  A    between atoms: _284  and  _287
REMARK  136  A    between atoms: _287  and  _288
REMARK  137  A    between atoms: _288  and  _289
REMARK  138  A    between atoms: _291  and  _293
REMARK  139  A    between atoms: _293  and  _294
REMARK  140  A    between atoms: _293  and  _296
REMARK  141  A    between atoms: _296  and  _297
REMARK  142  A    between atoms: _299  and  _301
REMARK  143  A    between atoms: _301  and  _302
REMARK  144  A    between atoms: _301  and  _304
REMARK  145  A    between atoms: _304  and  _305
REMARK  146  A    between atoms: _310  and  _312
REMARK  147  A    between atoms: _312  and  _313
REMARK  148  A    between atoms: _312  and  _315
REMARK  149  A    between atoms: _315  and  _316
REMARK  150  A    between atoms: _316  and  _317
REMARK  151  A    between atoms: _317  and  _318
REMARK  152  A    between atoms: _327  and  _329
REMARK  153  A    between atoms: _329  and  _330
REMARK  154  A    between atoms: _329  and  _332
REMARK  155  A    between atoms: _332  and  _333
REMARK  156  A    between atoms: _335  and  _337
REMARK  157  A    between atoms: _337  and  _338
REMARK  158  A    between atoms: _340  and  _342
REMARK  159  A    between atoms: _342  and  _343
REMARK  160  A    between atoms: _342  and  _345
REMARK  161  A    between atoms: _345  and  _346
REMARK  162  A    between atoms: _346  and  _347
REMARK  163  A    between atoms: _350  and  _352
REMARK  164  A    between atoms: _352  and  _353
REMARK  165  A    between atoms: _352  and  _355
REMARK  166  A    between atoms: _355  and  _356
REMARK  167  A    between atoms: _356  and  _357
REMARK  168  A    between atoms: _357  and  _358
REMARK  169  A    between atoms: _358  and  _359
REMARK  170  A    between atoms: _363  and  _365
REMARK  171  A    between atoms: _365  and  _366
REMARK  172  A    between atoms: _365  and  _368
REMARK  173  A    between atoms: _368  and  _369
REMARK  174  A    between atoms: _369  and  _370
REMARK  175  A    between atoms: _370  and  _371
REMARK                            x       y       z     vdW  Elec       q    Type
REMARK                         _______ _______ _______ _____ _____    ______ ____
ROOT
ATOM      1  NE  ARG A   1      31.568  23.453 -24.793  0.00  0.00    -0.265 N 
ATOM      2  CZ  ARG A   1      31.334  23.438 -23.489  0.00  0.00    +0.342 C 
ATOM      3  NH2 ARG A   1      32.257  23.901 -22.662  0.00  0.00    -0.292 N 
ATOM      4 HH21 ARG A   1      32.086  23.895 -21.636  0.00  0.00    +0.255 HD
ATOM      5 HH22 ARG A   1      33.153  24.271 -23.038  0.00  0.00    +0.255 HD
ATOM      6  NH1 ARG A   1      30.198  22.913 -23.013  0.00  0.00    -0.292 N 
ATOM      7 HH11 ARG A   1      30.019  22.903 -21.989  0.00  0.00    +0.255 HD
ATOM      8 HH12 ARG A   1      29.495  22.515 -23.668  0.00  0.00    +0.255 HD
ATOM      9  HE  ARG A   1      32.413  23.954 -25.134  0.00  0.00    +0.259 HD
ENDROOT
BRANCH   1  10
ATOM     10  CD  ARG A   1      30.702  22.803 -25.783  0.00  0.00    +0.174 C 
BRANCH  10  11
ATOM     11  CG  ARG A   1      31.329  23.034 -27.200  0.00  0.00    +0.045 C 
BRANCH  11  12
ATOM     12  CB  ARG A   1      30.957  22.005 -28.294  0.00  0.00    +0.029 C 
BRANCH  12  13
ATOM     13  CA  ARG A   1      31.243  20.532 -27.920  0.00  0.00    +0.133 C 
BRANCH  13  14
ATOM     14  N   ARG A   1      32.579  20.360 -27.335  0.00  0.00    -0.239 NA
ATOM     15  H   ARG A   1      33.372  20.887 -27.754  0.00  0.00    +0.142 HD
ENDBRANCH  13  14
BRANCH  13  16
ATOM     16  C   ARG A   1      31.151  19.654 -29.189  0.00  0.00    +0.224 C 
ATOM     17  O   ARG A   1      30.196  18.847 -29.282  0.00  0.00    -0.287 OA
ENDBRANCH  13  16
ENDBRANCH  12  13
ENDBRANCH  11  12
ENDBRANCH  10  11
ENDBRANCH   1  10
TORSDOF 6
REMARK  Name = ../refined-set-2016/2pu1/2pu1_pocket.pdb
REMARK  175 active torsions:
REMARK  status: ('A' for Active; 'I' for Inactive)
REMARK    1  A    between atoms: _1  and  _3
REMARK    2  A    between atoms: _3  and  _4
REMARK    3  A    between atoms: _3  and  _6
REMARK    4  A    between atoms: _6  and  _7
REMARK    5  A    between atoms: _7  and  _8
REMARK    6  A    between atoms: _8  and  _9
REMARK    7  A    between atoms: _19  and  _20
REMARK    8  A    between atoms: _25  and  _27
REMARK    9  A    between atoms: _27  and  _28
REMARK   10  A    between atoms: _27  and  _30
REMARK   11  A    between atoms: _30  and  _31
REMARK   12  A    between atoms: _33  and  _35
REMARK   13  A    between atoms: _35  and  _36
REMARK   14  A    between atoms: _38  and  _40
REMARK   15  A    between atoms: _40  and  _41
REMARK   16  A    between atoms: _44  and  _46
REMARK   17  A    between atoms: _46  and  _47
REMARK   18  A    between atoms: _46  and  _49
REMARK   19  A    between atoms: _47  and  _48
REMARK   20  A    between atoms: _47  and  _52
REMARK   21  A    between atoms: _48  and  ZN_381
REMARK   22  A    between atoms: _49  and  _50
REMARK   23  A    between atoms: _52  and  _54
REMARK   24  A    between atoms: _54  and  _55
REMARK   25  A    between atoms: _54  and  _57
REMARK   26  A    between atoms: _57  and  _58
REMARK   27  A    between atoms: _61  and  _63
REMARK   28  A    between atoms: _63  and  _64
REMARK   29  A    between atoms: _66  and  _68
REMARK   30  A    between atoms: _68  and  _69
REMARK   31  A    between atoms: _68  and  _71
REMARK   32  A    between atoms: _71  and  _72
REMARK   33  A    between atoms: _72  and  _73
REMARK   34  A    between atoms: _76  and  _78
REMARK   35  A    between atoms: _78  and  _79
REMARK   36  A    between atoms: _78  and  _81
REMARK   37  A    between atoms: _81  and  _82
REMARK   38  A    between atoms: _87  and  _89
REMARK   39  A    between atoms: _89  and  _90
REMARK   40  A    between atoms: _92  and  _94
REMARK   41  A    between atoms: _94  and  _95
REMARK   42  A    between atoms: _94  and  _97
REMARK   43  A    between atoms: _97  and  _98
REMARK   44  A    between atoms: _98  and  _99
REMARK   45  A    between atoms: _99  and  _100
REMARK   46  A    between atoms: _100  and  _101
REMARK   47  A    between atoms: _105  and  _107
REMARK   48  A    between atoms: _107  and  _108
REMARK   49  A    between atoms: _107  and  _110
REMARK   50  A    between atoms: _110  and  _111
REMARK   51  A    between atoms: _111  and  _112
REMARK   52  A    between atoms: _117  and  _119
REMARK   53  A    between atoms: _119  and  _120
REMARK   54  A    between atoms: _119  and  _122
REMARK   55  A    between atoms: _122  and  _123
REMARK   56  A    between atoms: _123  and  _124
REMARK   57  A    between atoms: _127  and  _129
REMARK   58  A    between atoms: _129  and  _130
REMARK   59  A    between atoms: _129  and  _132
REMARK   60  A    between atoms: _132  and  _133
REMARK   61  A    between atoms: _133  and  _134
REMARK   62  A    between atoms: _136  and  _138
REMARK   63  A    between atoms: _138  and  _139
REMARK   64  A    between atoms: _138  and  _141
REMARK   65  A    between atoms: _141  and  _142
REMARK   66  A    between atoms: _145  and  _147
REMARK   67  A    between atoms: _147  and  _148
REMARK   68  A    between atoms: _147  and  _150
REMARK   69  A    between atoms: _150  and  _151
REMARK   70  A    between atoms: _151  and  _152
REMARK   71  A    between atoms: _155  and  _157
REMARK   72  A    between atoms: _157  and  _158
REMARK   73  A    between atoms: _157  and  _160
REMARK   74  A    between atoms: _160  and  _161
REMARK   75  A    between atoms: _161  and  _163
REMARK   76  A    between atoms: _163  and  ZN_380
REMARK   77  A    between atoms: _164  and  _166
REMARK   78  A    between atoms: _166  and  _167
REMARK   79  A    between atoms: _166  and  _169
REMARK   80  A    between atoms: _171  and  _173
REMARK   81  A    between atoms: _173  and  _174
REMARK   82  A    between atoms: _177  and  _179
REMARK   83  A    between atoms: _179  and  _180
REMARK   84  A    between atoms: _179  and  _182
REMARK   85  A    between atoms: _182  and  _183
REMARK   86  A    between atoms: _183  and  _184
REMARK   87  A    between atoms: _187  and  _189
REMARK   88  A    between atoms: _189  and  _190
REMARK   89  A    between atoms: _189  and  _192
REMARK   90  A    between atoms: _192  and  _193
REMARK   91  A    between atoms: _193  and  _194
REMARK   92  A    between atoms: _194  and  _196
REMARK   93  A    between atoms: _196  and  ZN_380
REMARK   94  A    between atoms: _197  and  _199
REMARK   95  A    between atoms: _199  and  _200
REMARK   96  A    between atoms: _199  and  _202
REMARK   97  A    between atoms: _202  and  _203
REMARK   98  A    between atoms: _206  and  _208
REMARK   99  A    between atoms: _208  and  _209
REMARK  100  A    between atoms: _208  and  _211
REMARK  101  A    between atoms: _214  and  _216
REMARK  102  A    between atoms: _216  and  _217
REMARK  103  A    between atoms: _219  and  _221
REMARK  104  A    between atoms: _221  and  _222
REMARK  105  A    between atoms: _221  and  _224
REMARK  106  A    between atoms: _224  and  _225
REMARK  107  A    between atoms: _225  and  _227
REMARK  108  A    between atoms: _227  and  ZN_380
REMARK  109  A    between atoms: _228  and  _230
REMARK  110  A    between atoms: _230  and  _231
REMARK  111  A    between atoms: _230  and  _233
REMARK  112  A    between atoms: _233  and  _234
REMARK  113  A    between atoms: _237  and  _239
REMARK  114  A    between atoms: _239  and  _240
REMARK  115  A    between atoms: _239  and  _242
REMARK  116  A    between atoms: _242  and  _243
REMARK  117  A    between atoms: _246  and  _248
REMARK  118  A    between atoms: _248  and  _249
REMARK  119  A    between atoms: _248  and  _251
REMARK  120  A    between atoms: _251  and  _252
REMARK  121  A    between atoms: _252  and  _253
REMARK  122  A    between atoms: _253  and  _254
REMARK  123  A    between atoms: _254  and  _255
REMARK  124  A    between atoms: _259  and  _261
REMARK  125  A    between atoms: _261  and  _262
REMARK  126  A    between atoms: _261  and  _264
REMARK  127  A    between atoms: _264  and  _265
REMARK  128  A    between atoms: _270  and  _272
REMARK  129  A    between atoms: _272  and  _273
REMARK  130  A    between atoms: _272  and  _275
REMARK  131  A    between atoms: _275  and  _276
REMARK  132  A    between atoms: _276  and  _277
REMARK  133  A    between atoms: _282  and  _284
REMARK  134  A    between atoms: _284  and  _285
REMARK  135  A    between atoms: _284  and  _287
REMARK  136  A    between atoms: _287  and  _288
REMARK  137  A    between atoms: _288  and  _289
REMARK  138  A    between atoms: _291  and  _293
REMARK  139  A    between atoms: _293  and  _294
REMARK  140  A    between atoms: _293  and  _296
REMARK  141  A    between atoms: _296  and  _297
REMARK  142  A    between atoms: _299  and  _301
REMARK  143  A    between atoms: _301  and  _302
REMARK  144  A    between atoms: _301  and  _304
REMARK  145  A    between atoms: _304  and  _305
REMARK  146  A    between atoms: _310  and  _312
REMARK  147  A    between atoms: _312  and  _313
REMARK  148  A    between atoms: _312  and  _315
REMARK  149  A    between atoms: _315  and  _316
REMARK  150  A    between atoms: _316  and  _317
REMARK  151  A    between atoms: _317  and  _318
REMARK  152  A    between atoms: _327  and  _329
REMARK  153  A    between atoms: _329  and  _330
REMARK  154  A    between atoms: _329  and  _332
REMARK  155  A    between atoms: _332  and  _333
REMARK  156  A    between atoms: _335  and  _337
REMARK  157  A    between atoms: _337  and  _338
REMARK  158  A    between atoms: _340  and  _342
REMARK  159  A    between atoms: _342  and  _343
REMARK  160  A    between atoms: _342  and  _345
REMARK  161  A    between atoms: _345  and  _346
REMARK  162  A    between atoms: _346  and  _347
REMARK  163  A    between atoms: _350  and  _352
REMARK  164  A    between atoms: _352  and  _353
REMARK  165  A    between atoms: _352  and  _355
REMARK  166  A    between atoms: _355  and  _356
REMARK  167  A    between atoms: _356  and  _357
REMARK  168  A    between atoms: _357  and  _358
REMARK  169  A    between atoms: _358  and  _359
REMARK  170  A    between atoms: _363  and  _365
REMARK  171  A    between atoms: _365  and  _366
REMARK  172  A    between atoms: _365  and  _368
REMARK  173  A    between atoms: _368  and  _369
REMARK  174  A    between atoms: _369  and  _370
REMARK  175  A    between atoms: _370  and  _371
REMARK                            x       y       z     vdW  Elec       q    Type
REMARK                         _______ _______ _______ _____ _____    ______ ____
ROOT
ATOM      1  O   HOH     1      25.539  17.265 -16.247  0.00  0.00    +0.000 OA
ENDROOT
TORSDOF 0
REMARK  Name = ../refined-set-2016/2pu1/2pu1_pocket.pdb
REMARK  175 active torsions:
REMARK  status: ('A' for Active; 'I' for Inactive)
REMARK    1  A    between atoms: _1  and  _3
REMARK    2  A    between atoms: _3  and  _4
REMARK    3  A    between atoms: _3  and  _6
REMARK    4  A    between atoms: _6  and  _7
REMARK    5  A    between atoms: _7  and  _8
REMARK    6  A    between atoms: _8  and  _9
REMARK    7  A    between atoms: _19  and  _20
REMARK    8  A    between atoms: _25  and  _27
REMARK    9  A    between atoms: _27  and  _28
REMARK   10  A    between atoms: _27  and  _30
REMARK   11  A    between atoms: _30  and  _31
REMARK   12  A    between atoms: _33  and  _35
REMARK   13  A    between atoms: _35  and  _36
REMARK   14  A    between atoms: _38  and  _40
REMARK   15  A    between atoms: _40  and  _41
REMARK   16  A    between atoms: _44  and  _46
REMARK   17  A    between atoms: _46  and  _47
REMARK   18  A    between atoms: _46  and  _49
REMARK   19  A    between atoms: _47  and  _48
REMARK   20  A    between atoms: _47  and  _52
REMARK   21  A    between atoms: _48  and  ZN_381
REMARK   22  A    between atoms: _49  and  _50
REMARK   23  A    between atoms: _52  and  _54
REMARK   24  A    between atoms: _54  and  _55
REMARK   25  A    between atoms: _54  and  _57
REMARK   26  A    between atoms: _57  and  _58
REMARK   27  A    between atoms: _61  and  _63
REMARK   28  A    between atoms: _63  and  _64
REMARK   29  A    between atoms: _66  and  _68
REMARK   30  A    between atoms: _68  and  _69
REMARK   31  A    between atoms: _68  and  _71
REMARK   32  A    between atoms: _71  and  _72
REMARK   33  A    between atoms: _72  and  _73
REMARK   34  A    between atoms: _76  and  _78
REMARK   35  A    between atoms: _78  and  _79
REMARK   36  A    between atoms: _78  and  _81
REMARK   37  A    between atoms: _81  and  _82
REMARK   38  A    between atoms: _87  and  _89
REMARK   39  A    between atoms: _89  and  _90
REMARK   40  A    between atoms: _92  and  _94
REMARK   41  A    between atoms: _94  and  _95
REMARK   42  A    between atoms: _94  and  _97
REMARK   43  A    between atoms: _97  and  _98
REMARK   44  A    between atoms: _98  and  _99
REMARK   45  A    between atoms: _99  and  _100
REMARK   46  A    between atoms: _100  and  _101
REMARK   47  A    between atoms: _105  and  _107
REMARK   48  A    between atoms: _107  and  _108
REMARK   49  A    between atoms: _107  and  _110
REMARK   50  A    between atoms: _110  and  _111
REMARK   51  A    between atoms: _111  and  _112
REMARK   52  A    between atoms: _117  and  _119
REMARK   53  A    between atoms: _119  and  _120
REMARK   54  A    between atoms: _119  and  _122
REMARK   55  A    between atoms: _122  and  _123
REMARK   56  A    between atoms: _123  and  _124
REMARK   57  A    between atoms: _127  and  _129
REMARK   58  A    between atoms: _129  and  _130
REMARK   59  A    between atoms: _129  and  _132
REMARK   60  A    between atoms: _132  and  _133
REMARK   61  A    between atoms: _133  and  _134
REMARK   62  A    between atoms: _136  and  _138
REMARK   63  A    between atoms: _138  and  _139
REMARK   64  A    between atoms: _138  and  _141
REMARK   65  A    between atoms: _141  and  _142
REMARK   66  A    between atoms: _145  and  _147
REMARK   67  A    between atoms: _147  and  _148
REMARK   68  A    between atoms: _147  and  _150
REMARK   69  A    between atoms: _150  and  _151
REMARK   70  A    between atoms: _151  and  _152
REMARK   71  A    between atoms: _155  and  _157
REMARK   72  A    between atoms: _157  and  _158
REMARK   73  A    between atoms: _157  and  _160
REMARK   74  A    between atoms: _160  and  _161
REMARK   75  A    between atoms: _161  and  _163
REMARK   76  A    between atoms: _163  and  ZN_380
REMARK   77  A    between atoms: _164  and  _166
REMARK   78  A    between atoms: _166  and  _167
REMARK   79  A    between atoms: _166  and  _169
REMARK   80  A    between atoms: _171  and  _173
REMARK   81  A    between atoms: _173  and  _174
REMARK   82  A    between atoms: _177  and  _179
REMARK   83  A    between atoms: _179  and  _180
REMARK   84  A    between atoms: _179  and  _182
REMARK   85  A    between atoms: _182  and  _183
REMARK   86  A    between atoms: _183  and  _184
REMARK   87  A    between atoms: _187  and  _189
REMARK   88  A    between atoms: _189  and  _190
REMARK   89  A    between atoms: _189  and  _192
REMARK   90  A    between atoms: _192  and  _193
REMARK   91  A    between atoms: _193  and  _194
REMARK   92  A    between atoms: _194  and  _196
REMARK   93  A    between atoms: _196  and  ZN_380
REMARK   94  A    between atoms: _197  and  _199
REMARK   95  A    between atoms: _199  and  _200
REMARK   96  A    between atoms: _199  and  _202
REMARK   97  A    between atoms: _202  and  _203
REMARK   98  A    between atoms: _206  and  _208
REMARK   99  A    between atoms: _208  and  _209
REMARK  100  A    between atoms: _208  and  _211
REMARK  101  A    between atoms: _214  and  _216
REMARK  102  A    between atoms: _216  and  _217
REMARK  103  A    between atoms: _219  and  _221
REMARK  104  A    between atoms: _221  and  _222
REMARK  105  A    between atoms: _221  and  _224
REMARK  106  A    between atoms: _224  and  _225
REMARK  107  A    between atoms: _225  and  _227
REMARK  108  A    between atoms: _227  and  ZN_380
REMARK  109  A    between atoms: _228  and  _230
REMARK  110  A    between atoms: _230  and  _231
REMARK  111  A    between atoms: _230  and  _233
REMARK  112  A    between atoms: _233  and  _234
REMARK  113  A    between atoms: _237  and  _239
REMARK  114  A    between atoms: _239  and  _240
REMARK  115  A    between atoms: _239  and  _242
REMARK  116  A    between atoms: _242  and  _243
REMARK  117  A    between atoms: _246  and  _248
REMARK  118  A    between atoms: _248  and  _249
REMARK  119  A    between atoms: _248  and  _251
REMARK  120  A    between atoms: _251  and  _252
REMARK  121  A    between atoms: _252  and  _253
REMARK  122  A    between atoms: _253  and  _254
REMARK  123  A    between atoms: _254  and  _255
REMARK  124  A    between atoms: _259  and  _261
REMARK  125  A    between atoms: _261  and  _262
REMARK  126  A    between atoms: _261  and  _264
REMARK  127  A    between atoms: _264  and  _265
REMARK  128  A    between atoms: _270  and  _272
REMARK  129  A    between atoms: _272  and  _273
REMARK  130  A    between atoms: _272  and  _275
REMARK  131  A    between atoms: _275  and  _276
REMARK  132  A    between atoms: _276  and  _277
REMARK  133  A    between atoms: _282  and  _284
REMARK  134  A    between atoms: _284  and  _285
REMARK  135  A    between atoms: _284  and  _287
REMARK  136  A    between atoms: _287  and  _288
REMARK  137  A    between atoms: _288  and  _289
REMARK  138  A    between atoms: _291  and  _293
REMARK  139  A    between atoms: _293  and  _294
REMARK  140  A    between atoms: _293  and  _296
REMARK  141  A    between atoms: _296  and  _297
REMARK  142  A    between atoms: _299  and  _301
REMARK  143  A    between atoms: _301  and  _302
REMARK  144  A    between atoms: _301  and  _304
REMARK  145  A    between atoms: _304  and  _305
REMARK  146  A    between atoms: _310  and  _312
REMARK  147  A    between atoms: _312  and  _313
REMARK  148  A    between atoms: _312  and  _315
REMARK  149  A    between atoms: _315  and  _316
REMARK  150  A    between atoms: _316  and  _317
REMARK  151  A    between atoms: _317  and  _318
REMARK  152  A    between atoms: _327  and  _329
REMARK  153  A    between atoms: _329  and  _330
REMARK  154  A    between atoms: _329  and  _332
REMARK  155  A    between atoms: _332  and  _333
REMARK  156  A    between atoms: _335  and  _337
REMARK  157  A    between atoms: _337  and  _338
REMARK  158  A    between atoms: _340  and  _342
REMARK  159  A    between atoms: _342  and  _343
REMARK  160  A    between atoms: _342  and  _345
REMARK  161  A    between atoms: _345  and  _346
REMARK  162  A    between atoms: _346  and  _347
REMARK  163  A    between atoms: _350  and  _352
REMARK  164  A    between atoms: _352  and  _353
REMARK  165  A    between atoms: _352  and  _355
REMARK  166  A    between atoms: _355  and  _356
REMARK  167  A    between atoms: _356  and  _357
REMARK  168  A    between atoms: _357  and  _358
REMARK  169  A    between atoms: _358  and  _359
REMARK  170  A    between atoms: _363  and  _365
REMARK  171  A    between atoms: _365  and  _366
REMARK  172  A    between atoms: _365  and  _368
REMARK  173  A    between atoms: _368  and  _369
REMARK  174  A    between atoms: _369  and  _370
REMARK  175  A    between atoms: _370  and  _371
REMARK                            x       y       z     vdW  Elec       q    Type
REMARK                         _______ _______ _______ _____ _____    ______ ____
ROOT
ATOM      1  O   HOH     1      28.993  21.155 -11.471  0.00  0.00    +0.000 OA
ENDROOT
TORSDOF 0
REMARK  Name = ../refined-set-2016/2pu1/2pu1_pocket.pdb
REMARK  175 active torsions:
REMARK  status: ('A' for Active; 'I' for Inactive)
REMARK    1  A    between atoms: _1  and  _3
REMARK    2  A    between atoms: _3  and  _4
REMARK    3  A    between atoms: _3  and  _6
REMARK    4  A    between atoms: _6  and  _7
REMARK    5  A    between atoms: _7  and  _8
REMARK    6  A    between atoms: _8  and  _9
REMARK    7  A    between atoms: _19  and  _20
REMARK    8  A    between atoms: _25  and  _27
REMARK    9  A    between atoms: _27  and  _28
REMARK   10  A    between atoms: _27  and  _30
REMARK   11  A    between atoms: _30  and  _31
REMARK   12  A    between atoms: _33  and  _35
REMARK   13  A    between atoms: _35  and  _36
REMARK   14  A    between atoms: _38  and  _40
REMARK   15  A    between atoms: _40  and  _41
REMARK   16  A    between atoms: _44  and  _46
REMARK   17  A    between atoms: _46  and  _47
REMARK   18  A    between atoms: _46  and  _49
REMARK   19  A    between atoms: _47  and  _48
REMARK   20  A    between atoms: _47  and  _52
REMARK   21  A    between atoms: _48  and  ZN_381
REMARK   22  A    between atoms: _49  and  _50
REMARK   23  A    between atoms: _52  and  _54
REMARK   24  A    between atoms: _54  and  _55
REMARK   25  A    between atoms: _54  and  _57
REMARK   26  A    between atoms: _57  and  _58
REMARK   27  A    between atoms: _61  and  _63
REMARK   28  A    between atoms: _63  and  _64
REMARK   29  A    between atoms: _66  and  _68
REMARK   30  A    between atoms: _68  and  _69
REMARK   31  A    between atoms: _68  and  _71
REMARK   32  A    between atoms: _71  and  _72
REMARK   33  A    between atoms: _72  and  _73
REMARK   34  A    between atoms: _76  and  _78
REMARK   35  A    between atoms: _78  and  _79
REMARK   36  A    between atoms: _78  and  _81
REMARK   37  A    between atoms: _81  and  _82
REMARK   38  A    between atoms: _87  and  _89
REMARK   39  A    between atoms: _89  and  _90
REMARK   40  A    between atoms: _92  and  _94
REMARK   41  A    between atoms: _94  and  _95
REMARK   42  A    between atoms: _94  and  _97
REMARK   43  A    between atoms: _97  and  _98
REMARK   44  A    between atoms: _98  and  _99
REMARK   45  A    between atoms: _99  and  _100
REMARK   46  A    between atoms: _100  and  _101
REMARK   47  A    between atoms: _105  and  _107
REMARK   48  A    between atoms: _107  and  _108
REMARK   49  A    between atoms: _107  and  _110
REMARK   50  A    between atoms: _110  and  _111
REMARK   51  A    between atoms: _111  and  _112
REMARK   52  A    between atoms: _117  and  _119
REMARK   53  A    between atoms: _119  and  _120
REMARK   54  A    between atoms: _119  and  _122
REMARK   55  A    between atoms: _122  and  _123
REMARK   56  A    between atoms: _123  and  _124
REMARK   57  A    between atoms: _127  and  _129
REMARK   58  A    between atoms: _129  and  _130
REMARK   59  A    between atoms: _129  and  _132
REMARK   60  A    between atoms: _132  and  _133
REMARK   61  A    between atoms: _133  and  _134
REMARK   62  A    between atoms: _136  and  _138
REMARK   63  A    between atoms: _138  and  _139
REMARK   64  A    between atoms: _138  and  _141
REMARK   65  A    between atoms: _141  and  _142
REMARK   66  A    between atoms: _145  and  _147
REMARK   67  A    between atoms: _147  and  _148
REMARK   68  A    between atoms: _147  and  _150
REMARK   69  A    between atoms: _150  and  _151
REMARK   70  A    between atoms: _151  and  _152
REMARK   71  A    between atoms: _155  and  _157
REMARK   72  A    between atoms: _157  and  _158
REMARK   73  A    between atoms: _157  and  _160
REMARK   74  A    between atoms: _160  and  _161
REMARK   75  A    between atoms: _161  and  _163
REMARK   76  A    between atoms: _163  and  ZN_380
REMARK   77  A    between atoms: _164  and  _166
REMARK   78  A    between atoms: _166  and  _167
REMARK   79  A    between atoms: _166  and  _169
REMARK   80  A    between atoms: _171  and  _173
REMARK   81  A    between atoms: _173  and  _174
REMARK   82  A    between atoms: _177  and  _179
REMARK   83  A    between atoms: _179  and  _180
REMARK   84  A    between atoms: _179  and  _182
REMARK   85  A    between atoms: _182  and  _183
REMARK   86  A    between atoms: _183  and  _184
REMARK   87  A    between atoms: _187  and  _189
REMARK   88  A    between atoms: _189  and  _190
REMARK   89  A    between atoms: _189  and  _192
REMARK   90  A    between atoms: _192  and  _193
REMARK   91  A    between atoms: _193  and  _194
REMARK   92  A    between atoms: _194  and  _196
REMARK   93  A    between atoms: _196  and  ZN_380
REMARK   94  A    between atoms: _197  and  _199
REMARK   95  A    between atoms: _199  and  _200
REMARK   96  A    between atoms: _199  and  _202
REMARK   97  A    between atoms: _202  and  _203
REMARK   98  A    between atoms: _206  and  _208
REMARK   99  A    between atoms: _208  and  _209
REMARK  100  A    between atoms: _208  and  _211
REMARK  101  A    between atoms: _214  and  _216
REMARK  102  A    between atoms: _216  and  _217
REMARK  103  A    between atoms: _219  and  _221
REMARK  104  A    between atoms: _221  and  _222
REMARK  105  A    between atoms: _221  and  _224
REMARK  106  A    between atoms: _224  and  _225
REMARK  107  A    between atoms: _225  and  _227
REMARK  108  A    between atoms: _227  and  ZN_380
REMARK  109  A    between atoms: _228  and  _230
REMARK  110  A    between atoms: _230  and  _231
REMARK  111  A    between atoms: _230  and  _233
REMARK  112  A    between atoms: _233  and  _234
REMARK  113  A    between atoms: _237  and  _239
REMARK  114  A    between atoms: _239  and  _240
REMARK  115  A    between atoms: _239  and  _242
REMARK  116  A    between atoms: _242  and  _243
REMARK  117  A    between atoms: _246  and  _248
REMARK  118  A    between atoms: _248  and  _249
REMARK  119  A    between atoms: _248  and  _251
REMARK  120  A    between atoms: _251  and  _252
REMARK  121  A    between atoms: _252  and  _253
REMARK  122  A    between atoms: _253  and  _254
REMARK  123  A    between atoms: _254  and  _255
REMARK  124  A    between atoms: _259  and  _261
REMARK  125  A    between atoms: _261  and  _262
REMARK  126  A    between atoms: _261  and  _264
REMARK  127  A    between atoms: _264  and  _265
REMARK  128  A    between atoms: _270  and  _272
REMARK  129  A    between atoms: _272  and  _273
REMARK  130  A    between atoms: _272  and  _275
REMARK  131  A    between atoms: _275  and  _276
REMARK  132  A    between atoms: _276  and  _277
REMARK  133  A    between atoms: _282  and  _284
REMARK  134  A    between atoms: _284  and  _285
REMARK  135  A    between atoms: _284  and  _287
REMARK  136  A    between atoms: _287  and  _288
REMARK  137  A    between atoms: _288  and  _289
REMARK  138  A    between atoms: _291  and  _293
REMARK  139  A    between atoms: _293  and  _294
REMARK  140  A    between atoms: _293  and  _296
REMARK  141  A    between atoms: _296  and  _297
REMARK  142  A    between atoms: _299  and  _301
REMARK  143  A    between atoms: _301  and  _302
REMARK  144  A    between atoms: _301  and  _304
REMARK  145  A    between atoms: _304  and  _305
REMARK  146  A    between atoms: _310  and  _312
REMARK  147  A    between atoms: _312  and  _313
REMARK  148  A    between atoms: _312  and  _315
REMARK  149  A    between atoms: _315  and  _316
REMARK  150  A    between atoms: _316  and  _317
REMARK  151  A    between atoms: _317  and  _318
REMARK  152  A    between atoms: _327  and  _329
REMARK  153  A    between atoms: _329  and  _330
REMARK  154  A    between atoms: _329  and  _332
REMARK  155  A    between atoms: _332  and  _333
REMARK  156  A    between atoms: _335  and  _337
REMARK  157  A    between atoms: _337  and  _338
REMARK  158  A    between atoms: _340  and  _342
REMARK  159  A    between atoms: _342  and  _343
REMARK  160  A    between atoms: _342  and  _345
REMARK  161  A    between atoms: _345  and  _346
REMARK  162  A    between atoms: _346  and  _347
REMARK  163  A    between atoms: _350  and  _352
REMARK  164  A    between atoms: _352  and  _353
REMARK  165  A    between atoms: _352  and  _355
REMARK  166  A    between atoms: _355  and  _356
REMARK  167  A    between atoms: _356  and  _357
REMARK  168  A    between atoms: _357  and  _358
REMARK  169  A    between atoms: _358  and  _359
REMARK  170  A    between atoms: _363  and  _365
REMARK  171  A    between atoms: _365  and  _366
REMARK  172  A    between atoms: _365  and  _368
REMARK  173  A    between atoms: _368  and  _369
REMARK  174  A    between atoms: _369  and  _370
REMARK  175  A    between atoms: _370  and  _371
REMARK                            x       y       z     vdW  Elec       q    Type
REMARK                         _______ _______ _______ _____ _____    ______ ____
ROOT
ATOM      1  O   HOH     1      24.899  25.570 -21.080  0.00  0.00    +0.000 OA
ENDROOT
TORSDOF 0
REMARK  Name = ../refined-set-2016/2pu1/2pu1_pocket.pdb
REMARK  175 active torsions:
REMARK  status: ('A' for Active; 'I' for Inactive)
REMARK    1  A    between atoms: _1  and  _3
REMARK    2  A    between atoms: _3  and  _4
REMARK    3  A    between atoms: _3  and  _6
REMARK    4  A    between atoms: _6  and  _7
REMARK    5  A    between atoms: _7  and  _8
REMARK    6  A    between atoms: _8  and  _9
REMARK    7  A    between atoms: _19  and  _20
REMARK    8  A    between atoms: _25  and  _27
REMARK    9  A    between atoms: _27  and  _28
REMARK   10  A    between atoms: _27  and  _30
REMARK   11  A    between atoms: _30  and  _31
REMARK   12  A    between atoms: _33  and  _35
REMARK   13  A    between atoms: _35  and  _36
REMARK   14  A    between atoms: _38  and  _40
REMARK   15  A    between atoms: _40  and  _41
REMARK   16  A    between atoms: _44  and  _46
REMARK   17  A    between atoms: _46  and  _47
REMARK   18  A    between atoms: _46  and  _49
REMARK   19  A    between atoms: _47  and  _48
REMARK   20  A    between atoms: _47  and  _52
REMARK   21  A    between atoms: _48  and  ZN_381
REMARK   22  A    between atoms: _49  and  _50
REMARK   23  A    between atoms: _52  and  _54
REMARK   24  A    between atoms: _54  and  _55
REMARK   25  A    between atoms: _54  and  _57
REMARK   26  A    between atoms: _57  and  _58
REMARK   27  A    between atoms: _61  and  _63
REMARK   28  A    between atoms: _63  and  _64
REMARK   29  A    between atoms: _66  and  _68
REMARK   30  A    between atoms: _68  and  _69
REMARK   31  A    between atoms: _68  and  _71
REMARK   32  A    between atoms: _71  and  _72
REMARK   33  A    between atoms: _72  and  _73
REMARK   34  A    between atoms: _76  and  _78
REMARK   35  A    between atoms: _78  and  _79
REMARK   36  A    between atoms: _78  and  _81
REMARK   37  A    between atoms: _81  and  _82
REMARK   38  A    between atoms: _87  and  _89
REMARK   39  A    between atoms: _89  and  _90
REMARK   40  A    between atoms: _92  and  _94
REMARK   41  A    between atoms: _94  and  _95
REMARK   42  A    between atoms: _94  and  _97
REMARK   43  A    between atoms: _97  and  _98
REMARK   44  A    between atoms: _98  and  _99
REMARK   45  A    between atoms: _99  and  _100
REMARK   46  A    between atoms: _100  and  _101
REMARK   47  A    between atoms: _105  and  _107
REMARK   48  A    between atoms: _107  and  _108
REMARK   49  A    between atoms: _107  and  _110
REMARK   50  A    between atoms: _110  and  _111
REMARK   51  A    between atoms: _111  and  _112
REMARK   52  A    between atoms: _117  and  _119
REMARK   53  A    between atoms: _119  and  _120
REMARK   54  A    between atoms: _119  and  _122
REMARK   55  A    between atoms: _122  and  _123
REMARK   56  A    between atoms: _123  and  _124
REMARK   57  A    between atoms: _127  and  _129
REMARK   58  A    between atoms: _129  and  _130
REMARK   59  A    between atoms: _129  and  _132
REMARK   60  A    between atoms: _132  and  _133
REMARK   61  A    between atoms: _133  and  _134
REMARK   62  A    between atoms: _136  and  _138
REMARK   63  A    between atoms: _138  and  _139
REMARK   64  A    between atoms: _138  and  _141
REMARK   65  A    between atoms: _141  and  _142
REMARK   66  A    between atoms: _145  and  _147
REMARK   67  A    between atoms: _147  and  _148
REMARK   68  A    between atoms: _147  and  _150
REMARK   69  A    between atoms: _150  and  _151
REMARK   70  A    between atoms: _151  and  _152
REMARK   71  A    between atoms: _155  and  _157
REMARK   72  A    between atoms: _157  and  _158
REMARK   73  A    between atoms: _157  and  _160
REMARK   74  A    between atoms: _160  and  _161
REMARK   75  A    between atoms: _161  and  _163
REMARK   76  A    between atoms: _163  and  ZN_380
REMARK   77  A    between atoms: _164  and  _166
REMARK   78  A    between atoms: _166  and  _167
REMARK   79  A    between atoms: _166  and  _169
REMARK   80  A    between atoms: _171  and  _173
REMARK   81  A    between atoms: _173  and  _174
REMARK   82  A    between atoms: _177  and  _179
REMARK   83  A    between atoms: _179  and  _180
REMARK   84  A    between atoms: _179  and  _182
REMARK   85  A    between atoms: _182  and  _183
REMARK   86  A    between atoms: _183  and  _184
REMARK   87  A    between atoms: _187  and  _189
REMARK   88  A    between atoms: _189  and  _190
REMARK   89  A    between atoms: _189  and  _192
REMARK   90  A    between atoms: _192  and  _193
REMARK   91  A    between atoms: _193  and  _194
REMARK   92  A    between atoms: _194  and  _196
REMARK   93  A    between atoms: _196  and  ZN_380
REMARK   94  A    between atoms: _197  and  _199
REMARK   95  A    between atoms: _199  and  _200
REMARK   96  A    between atoms: _199  and  _202
REMARK   97  A    between atoms: _202  and  _203
REMARK   98  A    between atoms: _206  and  _208
REMARK   99  A    between atoms: _208  and  _209
REMARK  100  A    between atoms: _208  and  _211
REMARK  101  A    between atoms: _214  and  _216
REMARK  102  A    between atoms: _216  and  _217
REMARK  103  A    between atoms: _219  and  _221
REMARK  104  A    between atoms: _221  and  _222
REMARK  105  A    between atoms: _221  and  _224
REMARK  106  A    between atoms: _224  and  _225
REMARK  107  A    between atoms: _225  and  _227
REMARK  108  A    between atoms: _227  and  ZN_380
REMARK  109  A    between atoms: _228  and  _230
REMARK  110  A    between atoms: _230  and  _231
REMARK  111  A    between atoms: _230  and  _233
REMARK  112  A    between atoms: _233  and  _234
REMARK  113  A    between atoms: _237  and  _239
REMARK  114  A    between atoms: _239  and  _240
REMARK  115  A    between atoms: _239  and  _242
REMARK  116  A    between atoms: _242  and  _243
REMARK  117  A    between atoms: _246  and  _248
REMARK  118  A    between atoms: _248  and  _249
REMARK  119  A    between atoms: _248  and  _251
REMARK  120  A    between atoms: _251  and  _252
REMARK  121  A    between atoms: _252  and  _253
REMARK  122  A    between atoms: _253  and  _254
REMARK  123  A    between atoms: _254  and  _255
REMARK  124  A    between atoms: _259  and  _261
REMARK  125  A    between atoms: _261  and  _262
REMARK  126  A    between atoms: _261  and  _264
REMARK  127  A    between atoms: _264  and  _265
REMARK  128  A    between atoms: _270  and  _272
REMARK  129  A    between atoms: _272  and  _273
REMARK  130  A    between atoms: _272  and  _275
REMARK  131  A    between atoms: _275  and  _276
REMARK  132  A    between atoms: _276  and  _277
REMARK  133  A    between atoms: _282  and  _284
REMARK  134  A    between atoms: _284  and  _285
REMARK  135  A    between atoms: _284  and  _287
REMARK  136  A    between atoms: _287  and  _288
REMARK  137  A    between atoms: _288  and  _289
REMARK  138  A    between atoms: _291  and  _293
REMARK  139  A    between atoms: _293  and  _294
REMARK  140  A    between atoms: _293  and  _296
REMARK  141  A    between atoms: _296  and  _297
REMARK  142  A    between atoms: _299  and  _301
REMARK  143  A    between atoms: _301  and  _302
REMARK  144  A    between atoms: _301  and  _304
REMARK  145  A    between atoms: _304  and  _305
REMARK  146  A    between atoms: _310  and  _312
REMARK  147  A    between atoms: _312  and  _313
REMARK  148  A    between atoms: _312  and  _315
REMARK  149  A    between atoms: _315  and  _316
REMARK  150  A    between atoms: _316  and  _317
REMARK  151  A    between atoms: _317  and  _318
REMARK  152  A    between atoms: _327  and  _329
REMARK  153  A    between atoms: _329  and  _330
REMARK  154  A    between atoms: _329  and  _332
REMARK  155  A    between atoms: _332  and  _333
REMARK  156  A    between atoms: _335  and  _337
REMARK  157  A    between atoms: _337  and  _338
REMARK  158  A    between atoms: _340  and  _342
REMARK  159  A    between atoms: _342  and  _343
REMARK  160  A    between atoms: _342  and  _345
REMARK  161  A    between atoms: _345  and  _346
REMARK  162  A    between atoms: _346  and  _347
REMARK  163  A    between atoms: _350  and  _352
REMARK  164  A    between atoms: _352  and  _353
REMARK  165  A    between atoms: _352  and  _355
REMARK  166  A    between atoms: _355  and  _356
REMARK  167  A    between atoms: _356  and  _357
REMARK  168  A    between atoms: _357  and  _358
REMARK  169  A    between atoms: _358  and  _359
REMARK  170  A    between atoms: _363  and  _365
REMARK  171  A    between atoms: _365  and  _366
REMARK  172  A    between atoms: _365  and  _368
REMARK  173  A    between atoms: _368  and  _369
REMARK  174  A    between atoms: _369  and  _370
REMARK  175  A    between atoms: _370  and  _371
REMARK                            x       y       z     vdW  Elec       q    Type
REMARK                         _______ _______ _______ _____ _____    ______ ____
ROOT
ATOM      1  O   HOH     1      25.920  16.777 -18.816  0.00  0.00    +0.000 OA
ENDROOT
TORSDOF 0
REMARK  Name = ../refined-set-2016/2pu1/2pu1_pocket.pdb
REMARK  175 active torsions:
REMARK  status: ('A' for Active; 'I' for Inactive)
REMARK    1  A    between atoms: _1  and  _3
REMARK    2  A    between atoms: _3  and  _4
REMARK    3  A    between atoms: _3  and  _6
REMARK    4  A    between atoms: _6  and  _7
REMARK    5  A    between atoms: _7  and  _8
REMARK    6  A    between atoms: _8  and  _9
REMARK    7  A    between atoms: _19  and  _20
REMARK    8  A    between atoms: _25  and  _27
REMARK    9  A    between atoms: _27  and  _28
REMARK   10  A    between atoms: _27  and  _30
REMARK   11  A    between atoms: _30  and  _31
REMARK   12  A    between atoms: _33  and  _35
REMARK   13  A    between atoms: _35  and  _36
REMARK   14  A    between atoms: _38  and  _40
REMARK   15  A    between atoms: _40  and  _41
REMARK   16  A    between atoms: _44  and  _46
REMARK   17  A    between atoms: _46  and  _47
REMARK   18  A    between atoms: _46  and  _49
REMARK   19  A    between atoms: _47  and  _48
REMARK   20  A    between atoms: _47  and  _52
REMARK   21  A    between atoms: _48  and  ZN_381
REMARK   22  A    between atoms: _49  and  _50
REMARK   23  A    between atoms: _52  and  _54
REMARK   24  A    between atoms: _54  and  _55
REMARK   25  A    between atoms: _54  and  _57
REMARK   26  A    between atoms: _57  and  _58
REMARK   27  A    between atoms: _61  and  _63
REMARK   28  A    between atoms: _63  and  _64
REMARK   29  A    between atoms: _66  and  _68
REMARK   30  A    between atoms: _68  and  _69
REMARK   31  A    between atoms: _68  and  _71
REMARK   32  A    between atoms: _71  and  _72
REMARK   33  A    between atoms: _72  and  _73
REMARK   34  A    between atoms: _76  and  _78
REMARK   35  A    between atoms: _78  and  _79
REMARK   36  A    between atoms: _78  and  _81
REMARK   37  A    between atoms: _81  and  _82
REMARK   38  A    between atoms: _87  and  _89
REMARK   39  A    between atoms: _89  and  _90
REMARK   40  A    between atoms: _92  and  _94
REMARK   41  A    between atoms: _94  and  _95
REMARK   42  A    between atoms: _94  and  _97
REMARK   43  A    between atoms: _97  and  _98
REMARK   44  A    between atoms: _98  and  _99
REMARK   45  A    between atoms: _99  and  _100
REMARK   46  A    between atoms: _100  and  _101
REMARK   47  A    between atoms: _105  and  _107
REMARK   48  A    between atoms: _107  and  _108
REMARK   49  A    between atoms: _107  and  _110
REMARK   50  A    between atoms: _110  and  _111
REMARK   51  A    between atoms: _111  and  _112
REMARK   52  A    between atoms: _117  and  _119
REMARK   53  A    between atoms: _119  and  _120
REMARK   54  A    between atoms: _119  and  _122
REMARK   55  A    between atoms: _122  and  _123
REMARK   56  A    between atoms: _123  and  _124
REMARK   57  A    between atoms: _127  and  _129
REMARK   58  A    between atoms: _129  and  _130
REMARK   59  A    between atoms: _129  and  _132
REMARK   60  A    between atoms: _132  and  _133
REMARK   61  A    between atoms: _133  and  _134
REMARK   62  A    between atoms: _136  and  _138
REMARK   63  A    between atoms: _138  and  _139
REMARK   64  A    between atoms: _138  and  _141
REMARK   65  A    between atoms: _141  and  _142
REMARK   66  A    between atoms: _145  and  _147
REMARK   67  A    between atoms: _147  and  _148
REMARK   68  A    between atoms: _147  and  _150
REMARK   69  A    between atoms: _150  and  _151
REMARK   70  A    between atoms: _151  and  _152
REMARK   71  A    between atoms: _155  and  _157
REMARK   72  A    between atoms: _157  and  _158
REMARK   73  A    between atoms: _157  and  _160
REMARK   74  A    between atoms: _160  and  _161
REMARK   75  A    between atoms: _161  and  _163
REMARK   76  A    between atoms: _163  and  ZN_380
REMARK   77  A    between atoms: _164  and  _166
REMARK   78  A    between atoms: _166  and  _167
REMARK   79  A    between atoms: _166  and  _169
REMARK   80  A    between atoms: _171  and  _173
REMARK   81  A    between atoms: _173  and  _174
REMARK   82  A    between atoms: _177  and  _179
REMARK   83  A    between atoms: _179  and  _180
REMARK   84  A    between atoms: _179  and  _182
REMARK   85  A    between atoms: _182  and  _183
REMARK   86  A    between atoms: _183  and  _184
REMARK   87  A    between atoms: _187  and  _189
REMARK   88  A    between atoms: _189  and  _190
REMARK   89  A    between atoms: _189  and  _192
REMARK   90  A    between atoms: _192  and  _193
REMARK   91  A    between atoms: _193  and  _194
REMARK   92  A    between atoms: _194  and  _196
REMARK   93  A    between atoms: _196  and  ZN_380
REMARK   94  A    between atoms: _197  and  _199
REMARK   95  A    between atoms: _199  and  _200
REMARK   96  A    between atoms: _199  and  _202
REMARK   97  A    between atoms: _202  and  _203
REMARK   98  A    between atoms: _206  and  _208
REMARK   99  A    between atoms: _208  and  _209
REMARK  100  A    between atoms: _208  and  _211
REMARK  101  A    between atoms: _214  and  _216
REMARK  102  A    between atoms: _216  and  _217
REMARK  103  A    between atoms: _219  and  _221
REMARK  104  A    between atoms: _221  and  _222
REMARK  105  A    between atoms: _221  and  _224
REMARK  106  A    between atoms: _224  and  _225
REMARK  107  A    between atoms: _225  and  _227
REMARK  108  A    between atoms: _227  and  ZN_380
REMARK  109  A    between atoms: _228  and  _230
REMARK  110  A    between atoms: _230  and  _231
REMARK  111  A    between atoms: _230  and  _233
REMARK  112  A    between atoms: _233  and  _234
REMARK  113  A    between atoms: _237  and  _239
REMARK  114  A    between atoms: _239  and  _240
REMARK  115  A    between atoms: _239  and  _242
REMARK  116  A    between atoms: _242  and  _243
REMARK  117  A    between atoms: _246  and  _248
REMARK  118  A    between atoms: _248  and  _249
REMARK  119  A    between atoms: _248  and  _251
REMARK  120  A    between atoms: _251  and  _252
REMARK  121  A    between atoms: _252  and  _253
REMARK  122  A    between atoms: _253  and  _254
REMARK  123  A    between atoms: _254  and  _255
REMARK  124  A    between atoms: _259  and  _261
REMARK  125  A    between atoms: _261  and  _262
REMARK  126  A    between atoms: _261  and  _264
REMARK  127  A    between atoms: _264  and  _265
REMARK  128  A    between atoms: _270  and  _272
REMARK  129  A    between atoms: _272  and  _273
REMARK  130  A    between atoms: _272  and  _275
REMARK  131  A    between atoms: _275  and  _276
REMARK  132  A    between atoms: _276  and  _277
REMARK  133  A    between atoms: _282  and  _284
REMARK  134  A    between atoms: _284  and  _285
REMARK  135  A    between atoms: _284  and  _287
REMARK  136  A    between atoms: _287  and  _288
REMARK  137  A    between atoms: _288  and  _289
REMARK  138  A    between atoms: _291  and  _293
REMARK  139  A    between atoms: _293  and  _294
REMARK  140  A    between atoms: _293  and  _296
REMARK  141  A    between atoms: _296  and  _297
REMARK  142  A    between atoms: _299  and  _301
REMARK  143  A    between atoms: _301  and  _302
REMARK  144  A    between atoms: _301  and  _304
REMARK  145  A    between atoms: _304  and  _305
REMARK  146  A    between atoms: _310  and  _312
REMARK  147  A    between atoms: _312  and  _313
REMARK  148  A    between atoms: _312  and  _315
REMARK  149  A    between atoms: _315  and  _316
REMARK  150  A    between atoms: _316  and  _317
REMARK  151  A    between atoms: _317  and  _318
REMARK  152  A    between atoms: _327  and  _329
REMARK  153  A    between atoms: _329  and  _330
REMARK  154  A    between atoms: _329  and  _332
REMARK  155  A    between atoms: _332  and  _333
REMARK  156  A    between atoms: _335  and  _337
REMARK  157  A    between atoms: _337  and  _338
REMARK  158  A    between atoms: _340  and  _342
REMARK  159  A    between atoms: _342  and  _343
REMARK  160  A    between atoms: _342  and  _345
REMARK  161  A    between atoms: _345  and  _346
REMARK  162  A    between atoms: _346  and  _347
REMARK  163  A    between atoms: _350  and  _352
REMARK  164  A    between atoms: _352  and  _353
REMARK  165  A    between atoms: _352  and  _355
REMARK  166  A    between atoms: _355  and  _356
REMARK  167  A    between atoms: _356  and  _357
REMARK  168  A    between atoms: _357  and  _358
REMARK  169  A    between atoms: _358  and  _359
REMARK  170  A    between atoms: _363  and  _365
REMARK  171  A    between atoms: _365  and  _366
REMARK  172  A    between atoms: _365  and  _368
REMARK  173  A    between atoms: _368  and  _369
REMARK  174  A    between atoms: _369  and  _370
REMARK  175  A    between atoms: _370  and  _371
REMARK                            x       y       z     vdW  Elec       q    Type
REMARK                         _______ _______ _______ _____ _____    ______ ____
ROOT
ATOM      1  O   HOH     1      18.836  30.548 -12.799  0.00  0.00    +0.000 OA
ENDROOT
TORSDOF 0
REMARK  Name = ../refined-set-2016/2pu1/2pu1_pocket.pdb
REMARK  175 active torsions:
REMARK  status: ('A' for Active; 'I' for Inactive)
REMARK    1  A    between atoms: _1  and  _3
REMARK    2  A    between atoms: _3  and  _4
REMARK    3  A    between atoms: _3  and  _6
REMARK    4  A    between atoms: _6  and  _7
REMARK    5  A    between atoms: _7  and  _8
REMARK    6  A    between atoms: _8  and  _9
REMARK    7  A    between atoms: _19  and  _20
REMARK    8  A    between atoms: _25  and  _27
REMARK    9  A    between atoms: _27  and  _28
REMARK   10  A    between atoms: _27  and  _30
REMARK   11  A    between atoms: _30  and  _31
REMARK   12  A    between atoms: _33  and  _35
REMARK   13  A    between atoms: _35  and  _36
REMARK   14  A    between atoms: _38  and  _40
REMARK   15  A    between atoms: _40  and  _41
REMARK   16  A    between atoms: _44  and  _46
REMARK   17  A    between atoms: _46  and  _47
REMARK   18  A    between atoms: _46  and  _49
REMARK   19  A    between atoms: _47  and  _48
REMARK   20  A    between atoms: _47  and  _52
REMARK   21  A    between atoms: _48  and  ZN_381
REMARK   22  A    between atoms: _49  and  _50
REMARK   23  A    between atoms: _52  and  _54
REMARK   24  A    between atoms: _54  and  _55
REMARK   25  A    between atoms: _54  and  _57
REMARK   26  A    between atoms: _57  and  _58
REMARK   27  A    between atoms: _61  and  _63
REMARK   28  A    between atoms: _63  and  _64
REMARK   29  A    between atoms: _66  and  _68
REMARK   30  A    between atoms: _68  and  _69
REMARK   31  A    between atoms: _68  and  _71
REMARK   32  A    between atoms: _71  and  _72
REMARK   33  A    between atoms: _72  and  _73
REMARK   34  A    between atoms: _76  and  _78
REMARK   35  A    between atoms: _78  and  _79
REMARK   36  A    between atoms: _78  and  _81
REMARK   37  A    between atoms: _81  and  _82
REMARK   38  A    between atoms: _87  and  _89
REMARK   39  A    between atoms: _89  and  _90
REMARK   40  A    between atoms: _92  and  _94
REMARK   41  A    between atoms: _94  and  _95
REMARK   42  A    between atoms: _94  and  _97
REMARK   43  A    between atoms: _97  and  _98
REMARK   44  A    between atoms: _98  and  _99
REMARK   45  A    between atoms: _99  and  _100
REMARK   46  A    between atoms: _100  and  _101
REMARK   47  A    between atoms: _105  and  _107
REMARK   48  A    between atoms: _107  and  _108
REMARK   49  A    between atoms: _107  and  _110
REMARK   50  A    between atoms: _110  and  _111
REMARK   51  A    between atoms: _111  and  _112
REMARK   52  A    between atoms: _117  and  _119
REMARK   53  A    between atoms: _119  and  _120
REMARK   54  A    between atoms: _119  and  _122
REMARK   55  A    between atoms: _122  and  _123
REMARK   56  A    between atoms: _123  and  _124
REMARK   57  A    between atoms: _127  and  _129
REMARK   58  A    between atoms: _129  and  _130
REMARK   59  A    between atoms: _129  and  _132
REMARK   60  A    between atoms: _132  and  _133
REMARK   61  A    between atoms: _133  and  _134
REMARK   62  A    between atoms: _136  and  _138
REMARK   63  A    between atoms: _138  and  _139
REMARK   64  A    between atoms: _138  and  _141
REMARK   65  A    between atoms: _141  and  _142
REMARK   66  A    between atoms: _145  and  _147
REMARK   67  A    between atoms: _147  and  _148
REMARK   68  A    between atoms: _147  and  _150
REMARK   69  A    between atoms: _150  and  _151
REMARK   70  A    between atoms: _151  and  _152
REMARK   71  A    between atoms: _155  and  _157
REMARK   72  A    between atoms: _157  and  _158
REMARK   73  A    between atoms: _157  and  _160
REMARK   74  A    between atoms: _160  and  _161
REMARK   75  A    between atoms: _161  and  _163
REMARK   76  A    between atoms: _163  and  ZN_380
REMARK   77  A    between atoms: _164  and  _166
REMARK   78  A    between atoms: _166  and  _167
REMARK   79  A    between atoms: _166  and  _169
REMARK   80  A    between atoms: _171  and  _173
REMARK   81  A    between atoms: _173  and  _174
REMARK   82  A    between atoms: _177  and  _179
REMARK   83  A    between atoms: _179  and  _180
REMARK   84  A    between atoms: _179  and  _182
REMARK   85  A    between atoms: _182  and  _183
REMARK   86  A    between atoms: _183  and  _184
REMARK   87  A    between atoms: _187  and  _189
REMARK   88  A    between atoms: _189  and  _190
REMARK   89  A    between atoms: _189  and  _192
REMARK   90  A    between atoms: _192  and  _193
REMARK   91  A    between atoms: _193  and  _194
REMARK   92  A    between atoms: _194  and  _196
REMARK   93  A    between atoms: _196  and  ZN_380
REMARK   94  A    between atoms: _197  and  _199
REMARK   95  A    between atoms: _199  and  _200
REMARK   96  A    between atoms: _199  and  _202
REMARK   97  A    between atoms: _202  and  _203
REMARK   98  A    between atoms: _206  and  _208
REMARK   99  A    between atoms: _208  and  _209
REMARK  100  A    between atoms: _208  and  _211
REMARK  101  A    between atoms: _214  and  _216
REMARK  102  A    between atoms: _216  and  _217
REMARK  103  A    between atoms: _219  and  _221
REMARK  104  A    between atoms: _221  and  _222
REMARK  105  A    between atoms: _221  and  _224
REMARK  106  A    between atoms: _224  and  _225
REMARK  107  A    between atoms: _225  and  _227
REMARK  108  A    between atoms: _227  and  ZN_380
REMARK  109  A    between atoms: _228  and  _230
REMARK  110  A    between atoms: _230  and  _231
REMARK  111  A    between atoms: _230  and  _233
REMARK  112  A    between atoms: _233  and  _234
REMARK  113  A    between atoms: _237  and  _239
REMARK  114  A    between atoms: _239  and  _240
REMARK  115  A    between atoms: _239  and  _242
REMARK  116  A    between atoms: _242  and  _243
REMARK  117  A    between atoms: _246  and  _248
REMARK  118  A    between atoms: _248  and  _249
REMARK  119  A    between atoms: _248  and  _251
REMARK  120  A    between atoms: _251  and  _252
REMARK  121  A    between atoms: _252  and  _253
REMARK  122  A    between atoms: _253  and  _254
REMARK  123  A    between atoms: _254  and  _255
REMARK  124  A    between atoms: _259  and  _261
REMARK  125  A    between atoms: _261  and  _262
REMARK  126  A    between atoms: _261  and  _264
REMARK  127  A    between atoms: _264  and  _265
REMARK  128  A    between atoms: _270  and  _272
REMARK  129  A    between atoms: _272  and  _273
REMARK  130  A    between atoms: _272  and  _275
REMARK  131  A    between atoms: _275  and  _276
REMARK  132  A    between atoms: _276  and  _277
REMARK  133  A    between atoms: _282  and  _284
REMARK  134  A    between atoms: _284  and  _285
REMARK  135  A    between atoms: _284  and  _287
REMARK  136  A    between atoms: _287  and  _288
REMARK  137  A    between atoms: _288  and  _289
REMARK  138  A    between atoms: _291  and  _293
REMARK  139  A    between atoms: _293  and  _294
REMARK  140  A    between atoms: _293  and  _296
REMARK  141  A    between atoms: _296  and  _297
REMARK  142  A    between atoms: _299  and  _301
REMARK  143  A    between atoms: _301  and  _302
REMARK  144  A    between atoms: _301  and  _304
REMARK  145  A    between atoms: _304  and  _305
REMARK  146  A    between atoms: _310  and  _312
REMARK  147  A    between atoms: _312  and  _313
REMARK  148  A    between atoms: _312  and  _315
REMARK  149  A    between atoms: _315  and  _316
REMARK  150  A    between atoms: _316  and  _317
REMARK  151  A    between atoms: _317  and  _318
REMARK  152  A    between atoms: _327  and  _329
REMARK  153  A    between atoms: _329  and  _330
REMARK  154  A    between atoms: _329  and  _332
REMARK  155  A    between atoms: _332  and  _333
REMARK  156  A    between atoms: _335  and  _337
REMARK  157  A    between atoms: _337  and  _338
REMARK  158  A    between atoms: _340  and  _342
REMARK  159  A    between atoms: _342  and  _343
REMARK  160  A    between atoms: _342  and  _345
REMARK  161  A    between atoms: _345  and  _346
REMARK  162  A    between atoms: _346  and  _347
REMARK  163  A    between atoms: _350  and  _352
REMARK  164  A    between atoms: _352  and  _353
REMARK  165  A    between atoms: _352  and  _355
REMARK  166  A    between atoms: _355  and  _356
REMARK  167  A    between atoms: _356  and  _357
REMARK  168  A    between atoms: _357  and  _358
REMARK  169  A    between atoms: _358  and  _359
REMARK  170  A    between atoms: _363  and  _365
REMARK  171  A    between atoms: _365  and  _366
REMARK  172  A    between atoms: _365  and  _368
REMARK  173  A    between atoms: _368  and  _369
REMARK  174  A    between atoms: _369  and  _370
REMARK  175  A    between atoms: _370  and  _371
REMARK                            x       y       z     vdW  Elec       q    Type
REMARK                         _______ _______ _______ _____ _____    ______ ____
ROOT
ATOM      1  O   HOH     1      27.254  20.996  -9.461  0.00  0.00    +0.000 OA
ENDROOT
TORSDOF 0
REMARK  Name = ../refined-set-2016/2pu1/2pu1_pocket.pdb
REMARK  175 active torsions:
REMARK  status: ('A' for Active; 'I' for Inactive)
REMARK    1  A    between atoms: _1  and  _3
REMARK    2  A    between atoms: _3  and  _4
REMARK    3  A    between atoms: _3  and  _6
REMARK    4  A    between atoms: _6  and  _7
REMARK    5  A    between atoms: _7  and  _8
REMARK    6  A    between atoms: _8  and  _9
REMARK    7  A    between atoms: _19  and  _20
REMARK    8  A    between atoms: _25  and  _27
REMARK    9  A    between atoms: _27  and  _28
REMARK   10  A    between atoms: _27  and  _30
REMARK   11  A    between atoms: _30  and  _31
REMARK   12  A    between atoms: _33  and  _35
REMARK   13  A    between atoms: _35  and  _36
REMARK   14  A    between atoms: _38  and  _40
REMARK   15  A    between atoms: _40  and  _41
REMARK   16  A    between atoms: _44  and  _46
REMARK   17  A    between atoms: _46  and  _47
REMARK   18  A    between atoms: _46  and  _49
REMARK   19  A    between atoms: _47  and  _48
REMARK   20  A    between atoms: _47  and  _52
REMARK   21  A    between atoms: _48  and  ZN_381
REMARK   22  A    between atoms: _49  and  _50
REMARK   23  A    between atoms: _52  and  _54
REMARK   24  A    between atoms: _54  and  _55
REMARK   25  A    between atoms: _54  and  _57
REMARK   26  A    between atoms: _57  and  _58
REMARK   27  A    between atoms: _61  and  _63
REMARK   28  A    between atoms: _63  and  _64
REMARK   29  A    between atoms: _66  and  _68
REMARK   30  A    between atoms: _68  and  _69
REMARK   31  A    between atoms: _68  and  _71
REMARK   32  A    between atoms: _71  and  _72
REMARK   33  A    between atoms: _72  and  _73
REMARK   34  A    between atoms: _76  and  _78
REMARK   35  A    between atoms: _78  and  _79
REMARK   36  A    between atoms: _78  and  _81
REMARK   37  A    between atoms: _81  and  _82
REMARK   38  A    between atoms: _87  and  _89
REMARK   39  A    between atoms: _89  and  _90
REMARK   40  A    between atoms: _92  and  _94
REMARK   41  A    between atoms: _94  and  _95
REMARK   42  A    between atoms: _94  and  _97
REMARK   43  A    between atoms: _97  and  _98
REMARK   44  A    between atoms: _98  and  _99
REMARK   45  A    between atoms: _99  and  _100
REMARK   46  A    between atoms: _100  and  _101
REMARK   47  A    between atoms: _105  and  _107
REMARK   48  A    between atoms: _107  and  _108
REMARK   49  A    between atoms: _107  and  _110
REMARK   50  A    between atoms: _110  and  _111
REMARK   51  A    between atoms: _111  and  _112
REMARK   52  A    between atoms: _117  and  _119
REMARK   53  A    between atoms: _119  and  _120
REMARK   54  A    between atoms: _119  and  _122
REMARK   55  A    between atoms: _122  and  _123
REMARK   56  A    between atoms: _123  and  _124
REMARK   57  A    between atoms: _127  and  _129
REMARK   58  A    between atoms: _129  and  _130
REMARK   59  A    between atoms: _129  and  _132
REMARK   60  A    between atoms: _132  and  _133
REMARK   61  A    between atoms: _133  and  _134
REMARK   62  A    between atoms: _136  and  _138
REMARK   63  A    between atoms: _138  and  _139
REMARK   64  A    between atoms: _138  and  _141
REMARK   65  A    between atoms: _141  and  _142
REMARK   66  A    between atoms: _145  and  _147
REMARK   67  A    between atoms: _147  and  _148
REMARK   68  A    between atoms: _147  and  _150
REMARK   69  A    between atoms: _150  and  _151
REMARK   70  A    between atoms: _151  and  _152
REMARK   71  A    between atoms: _155  and  _157
REMARK   72  A    between atoms: _157  and  _158
REMARK   73  A    between atoms: _157  and  _160
REMARK   74  A    between atoms: _160  and  _161
REMARK   75  A    between atoms: _161  and  _163
REMARK   76  A    between atoms: _163  and  ZN_380
REMARK   77  A    between atoms: _164  and  _166
REMARK   78  A    between atoms: _166  and  _167
REMARK   79  A    between atoms: _166  and  _169
REMARK   80  A    between atoms: _171  and  _173
REMARK   81  A    between atoms: _173  and  _174
REMARK   82  A    between atoms: _177  and  _179
REMARK   83  A    between atoms: _179  and  _180
REMARK   84  A    between atoms: _179  and  _182
REMARK   85  A    between atoms: _182  and  _183
REMARK   86  A    between atoms: _183  and  _184
REMARK   87  A    between atoms: _187  and  _189
REMARK   88  A    between atoms: _189  and  _190
REMARK   89  A    between atoms: _189  and  _192
REMARK   90  A    between atoms: _192  and  _193
REMARK   91  A    between atoms: _193  and  _194
REMARK   92  A    between atoms: _194  and  _196
REMARK   93  A    between atoms: _196  and  ZN_380
REMARK   94  A    between atoms: _197  and  _199
REMARK   95  A    between atoms: _199  and  _200
REMARK   96  A    between atoms: _199  and  _202
REMARK   97  A    between atoms: _202  and  _203
REMARK   98  A    between atoms: _206  and  _208
REMARK   99  A    between atoms: _208  and  _209
REMARK  100  A    between atoms: _208  and  _211
REMARK  101  A    between atoms: _214  and  _216
REMARK  102  A    between atoms: _216  and  _217
REMARK  103  A    between atoms: _219  and  _221
REMARK  104  A    between atoms: _221  and  _222
REMARK  105  A    between atoms: _221  and  _224
REMARK  106  A    between atoms: _224  and  _225
REMARK  107  A    between atoms: _225  and  _227
REMARK  108  A    between atoms: _227  and  ZN_380
REMARK  109  A    between atoms: _228  and  _230
REMARK  110  A    between atoms: _230  and  _231
REMARK  111  A    between atoms: _230  and  _233
REMARK  112  A    between atoms: _233  and  _234
REMARK  113  A    between atoms: _237  and  _239
REMARK  114  A    between atoms: _239  and  _240
REMARK  115  A    between atoms: _239  and  _242
REMARK  116  A    between atoms: _242  and  _243
REMARK  117  A    between atoms: _246  and  _248
REMARK  118  A    between atoms: _248  and  _249
REMARK  119  A    between atoms: _248  and  _251
REMARK  120  A    between atoms: _251  and  _252
REMARK  121  A    between atoms: _252  and  _253
REMARK  122  A    between atoms: _253  and  _254
REMARK  123  A    between atoms: _254  and  _255
REMARK  124  A    between atoms: _259  and  _261
REMARK  125  A    between atoms: _261  and  _262
REMARK  126  A    between atoms: _261  and  _264
REMARK  127  A    between atoms: _264  and  _265
REMARK  128  A    between atoms: _270  and  _272
REMARK  129  A    between atoms: _272  and  _273
REMARK  130  A    between atoms: _272  and  _275
REMARK  131  A    between atoms: _275  and  _276
REMARK  132  A    between atoms: _276  and  _277
REMARK  133  A    between atoms: _282  and  _284
REMARK  134  A    between atoms: _284  and  _285
REMARK  135  A    between atoms: _284  and  _287
REMARK  136  A    between atoms: _287  and  _288
REMARK  137  A    between atoms: _288  and  _289
REMARK  138  A    between atoms: _291  and  _293
REMARK  139  A    between atoms: _293  and  _294
REMARK  140  A    between atoms: _293  and  _296
REMARK  141  A    between atoms: _296  and  _297
REMARK  142  A    between atoms: _299  and  _301
REMARK  143  A    between atoms: _301  and  _302
REMARK  144  A    between atoms: _301  and  _304
REMARK  145  A    between atoms: _304  and  _305
REMARK  146  A    between atoms: _310  and  _312
REMARK  147  A    between atoms: _312  and  _313
REMARK  148  A    between atoms: _312  and  _315
REMARK  149  A    between atoms: _315  and  _316
REMARK  150  A    between atoms: _316  and  _317
REMARK  151  A    between atoms: _317  and  _318
REMARK  152  A    between atoms: _327  and  _329
REMARK  153  A    between atoms: _329  and  _330
REMARK  154  A    between atoms: _329  and  _332
REMARK  155  A    between atoms: _332  and  _333
REMARK  156  A    between atoms: _335  and  _337
REMARK  157  A    between atoms: _337  and  _338
REMARK  158  A    between atoms: _340  and  _342
REMARK  159  A    between atoms: _342  and  _343
REMARK  160  A    between atoms: _342  and  _345
REMARK  161  A    between atoms: _345  and  _346
REMARK  162  A    between atoms: _346  and  _347
REMARK  163  A    between atoms: _350  and  _352
REMARK  164  A    between atoms: _352  and  _353
REMARK  165  A    between atoms: _352  and  _355
REMARK  166  A    between atoms: _355  and  _356
REMARK  167  A    between atoms: _356  and  _357
REMARK  168  A    between atoms: _357  and  _358
REMARK  169  A    between atoms: _358  and  _359
REMARK  170  A    between atoms: _363  and  _365
REMARK  171  A    between atoms: _365  and  _366
REMARK  172  A    between atoms: _365  and  _368
REMARK  173  A    between atoms: _368  and  _369
REMARK  174  A    between atoms: _369  and  _370
REMARK  175  A    between atoms: _370  and  _371
REMARK                            x       y       z     vdW  Elec       q    Type
REMARK                         _______ _______ _______ _____ _____    ______ ____
ROOT
ATOM      1  O   HOH     1      26.674  28.751 -20.619  0.00  0.00    +0.000 OA
ENDROOT
TORSDOF 0
REMARK  Name = ../refined-set-2016/2pu1/2pu1_pocket.pdb
REMARK  175 active torsions:
REMARK  status: ('A' for Active; 'I' for Inactive)
REMARK    1  A    between atoms: _1  and  _3
REMARK    2  A    between atoms: _3  and  _4
REMARK    3  A    between atoms: _3  and  _6
REMARK    4  A    between atoms: _6  and  _7
REMARK    5  A    between atoms: _7  and  _8
REMARK    6  A    between atoms: _8  and  _9
REMARK    7  A    between atoms: _19  and  _20
REMARK    8  A    between atoms: _25  and  _27
REMARK    9  A    between atoms: _27  and  _28
REMARK   10  A    between atoms: _27  and  _30
REMARK   11  A    between atoms: _30  and  _31
REMARK   12  A    between atoms: _33  and  _35
REMARK   13  A    between atoms: _35  and  _36
REMARK   14  A    between atoms: _38  and  _40
REMARK   15  A    between atoms: _40  and  _41
REMARK   16  A    between atoms: _44  and  _46
REMARK   17  A    between atoms: _46  and  _47
REMARK   18  A    between atoms: _46  and  _49
REMARK   19  A    between atoms: _47  and  _48
REMARK   20  A    between atoms: _47  and  _52
REMARK   21  A    between atoms: _48  and  ZN_381
REMARK   22  A    between atoms: _49  and  _50
REMARK   23  A    between atoms: _52  and  _54
REMARK   24  A    between atoms: _54  and  _55
REMARK   25  A    between atoms: _54  and  _57
REMARK   26  A    between atoms: _57  and  _58
REMARK   27  A    between atoms: _61  and  _63
REMARK   28  A    between atoms: _63  and  _64
REMARK   29  A    between atoms: _66  and  _68
REMARK   30  A    between atoms: _68  and  _69
REMARK   31  A    between atoms: _68  and  _71
REMARK   32  A    between atoms: _71  and  _72
REMARK   33  A    between atoms: _72  and  _73
REMARK   34  A    between atoms: _76  and  _78
REMARK   35  A    between atoms: _78  and  _79
REMARK   36  A    between atoms: _78  and  _81
REMARK   37  A    between atoms: _81  and  _82
REMARK   38  A    between atoms: _87  and  _89
REMARK   39  A    between atoms: _89  and  _90
REMARK   40  A    between atoms: _92  and  _94
REMARK   41  A    between atoms: _94  and  _95
REMARK   42  A    between atoms: _94  and  _97
REMARK   43  A    between atoms: _97  and  _98
REMARK   44  A    between atoms: _98  and  _99
REMARK   45  A    between atoms: _99  and  _100
REMARK   46  A    between atoms: _100  and  _101
REMARK   47  A    between atoms: _105  and  _107
REMARK   48  A    between atoms: _107  and  _108
REMARK   49  A    between atoms: _107  and  _110
REMARK   50  A    between atoms: _110  and  _111
REMARK   51  A    between atoms: _111  and  _112
REMARK   52  A    between atoms: _117  and  _119
REMARK   53  A    between atoms: _119  and  _120
REMARK   54  A    between atoms: _119  and  _122
REMARK   55  A    between atoms: _122  and  _123
REMARK   56  A    between atoms: _123  and  _124
REMARK   57  A    between atoms: _127  and  _129
REMARK   58  A    between atoms: _129  and  _130
REMARK   59  A    between atoms: _129  and  _132
REMARK   60  A    between atoms: _132  and  _133
REMARK   61  A    between atoms: _133  and  _134
REMARK   62  A    between atoms: _136  and  _138
REMARK   63  A    between atoms: _138  and  _139
REMARK   64  A    between atoms: _138  and  _141
REMARK   65  A    between atoms: _141  and  _142
REMARK   66  A    between atoms: _145  and  _147
REMARK   67  A    between atoms: _147  and  _148
REMARK   68  A    between atoms: _147  and  _150
REMARK   69  A    between atoms: _150  and  _151
REMARK   70  A    between atoms: _151  and  _152
REMARK   71  A    between atoms: _155  and  _157
REMARK   72  A    between atoms: _157  and  _158
REMARK   73  A    between atoms: _157  and  _160
REMARK   74  A    between atoms: _160  and  _161
REMARK   75  A    between atoms: _161  and  _163
REMARK   76  A    between atoms: _163  and  ZN_380
REMARK   77  A    between atoms: _164  and  _166
REMARK   78  A    between atoms: _166  and  _167
REMARK   79  A    between atoms: _166  and  _169
REMARK   80  A    between atoms: _171  and  _173
REMARK   81  A    between atoms: _173  and  _174
REMARK   82  A    between atoms: _177  and  _179
REMARK   83  A    between atoms: _179  and  _180
REMARK   84  A    between atoms: _179  and  _182
REMARK   85  A    between atoms: _182  and  _183
REMARK   86  A    between atoms: _183  and  _184
REMARK   87  A    between atoms: _187  and  _189
REMARK   88  A    between atoms: _189  and  _190
REMARK   89  A    between atoms: _189  and  _192
REMARK   90  A    between atoms: _192  and  _193
REMARK   91  A    between atoms: _193  and  _194
REMARK   92  A    between atoms: _194  and  _196
REMARK   93  A    between atoms: _196  and  ZN_380
REMARK   94  A    between atoms: _197  and  _199
REMARK   95  A    between atoms: _199  and  _200
REMARK   96  A    between atoms: _199  and  _202
REMARK   97  A    between atoms: _202  and  _203
REMARK   98  A    between atoms: _206  and  _208
REMARK   99  A    between atoms: _208  and  _209
REMARK  100  A    between atoms: _208  and  _211
REMARK  101  A    between atoms: _214  and  _216
REMARK  102  A    between atoms: _216  and  _217
REMARK  103  A    between atoms: _219  and  _221
REMARK  104  A    between atoms: _221  and  _222
REMARK  105  A    between atoms: _221  and  _224
REMARK  106  A    between atoms: _224  and  _225
REMARK  107  A    between atoms: _225  and  _227
REMARK  108  A    between atoms: _227  and  ZN_380
REMARK  109  A    between atoms: _228  and  _230
REMARK  110  A    between atoms: _230  and  _231
REMARK  111  A    between atoms: _230  and  _233
REMARK  112  A    between atoms: _233  and  _234
REMARK  113  A    between atoms: _237  and  _239
REMARK  114  A    between atoms: _239  and  _240
REMARK  115  A    between atoms: _239  and  _242
REMARK  116  A    between atoms: _242  and  _243
REMARK  117  A    between atoms: _246  and  _248
REMARK  118  A    between atoms: _248  and  _249
REMARK  119  A    between atoms: _248  and  _251
REMARK  120  A    between atoms: _251  and  _252
REMARK  121  A    between atoms: _252  and  _253
REMARK  122  A    between atoms: _253  and  _254
REMARK  123  A    between atoms: _254  and  _255
REMARK  124  A    between atoms: _259  and  _261
REMARK  125  A    between atoms: _261  and  _262
REMARK  126  A    between atoms: _261  and  _264
REMARK  127  A    between atoms: _264  and  _265
REMARK  128  A    between atoms: _270  and  _272
REMARK  129  A    between atoms: _272  and  _273
REMARK  130  A    between atoms: _272  and  _275
REMARK  131  A    between atoms: _275  and  _276
REMARK  132  A    between atoms: _276  and  _277
REMARK  133  A    between atoms: _282  and  _284
REMARK  134  A    between atoms: _284  and  _285
REMARK  135  A    between atoms: _284  and  _287
REMARK  136  A    between atoms: _287  and  _288
REMARK  137  A    between atoms: _288  and  _289
REMARK  138  A    between atoms: _291  and  _293
REMARK  139  A    between atoms: _293  and  _294
REMARK  140  A    between atoms: _293  and  _296
REMARK  141  A    between atoms: _296  and  _297
REMARK  142  A    between atoms: _299  and  _301
REMARK  143  A    between atoms: _301  and  _302
REMARK  144  A    between atoms: _301  and  _304
REMARK  145  A    between atoms: _304  and  _305
REMARK  146  A    between atoms: _310  and  _312
REMARK  147  A    between atoms: _312  and  _313
REMARK  148  A    between atoms: _312  and  _315
REMARK  149  A    between atoms: _315  and  _316
REMARK  150  A    between atoms: _316  and  _317
REMARK  151  A    between atoms: _317  and  _318
REMARK  152  A    between atoms: _327  and  _329
REMARK  153  A    between atoms: _329  and  _330
REMARK  154  A    between atoms: _329  and  _332
REMARK  155  A    between atoms: _332  and  _333
REMARK  156  A    between atoms: _335  and  _337
REMARK  157  A    between atoms: _337  and  _338
REMARK  158  A    between atoms: _340  and  _342
REMARK  159  A    between atoms: _342  and  _343
REMARK  160  A    between atoms: _342  and  _345
REMARK  161  A    between atoms: _345  and  _346
REMARK  162  A    between atoms: _346  and  _347
REMARK  163  A    between atoms: _350  and  _352
REMARK  164  A    between atoms: _352  and  _353
REMARK  165  A    between atoms: _352  and  _355
REMARK  166  A    between atoms: _355  and  _356
REMARK  167  A    between atoms: _356  and  _357
REMARK  168  A    between atoms: _357  and  _358
REMARK  169  A    between atoms: _358  and  _359
REMARK  170  A    between atoms: _363  and  _365
REMARK  171  A    between atoms: _365  and  _366
REMARK  172  A    between atoms: _365  and  _368
REMARK  173  A    between atoms: _368  and  _369
REMARK  174  A    between atoms: _369  and  _370
REMARK  175  A    between atoms: _370  and  _371
REMARK                            x       y       z     vdW  Elec       q    Type
REMARK                         _______ _______ _______ _____ _____    ______ ____
ROOT
ATOM      1  O   HOH     1      25.438  33.300 -16.163  0.00  0.00    +0.000 OA
ENDROOT
TORSDOF 0
REMARK  Name = ../refined-set-2016/2pu1/2pu1_pocket.pdb
REMARK  175 active torsions:
REMARK  status: ('A' for Active; 'I' for Inactive)
REMARK    1  A    between atoms: _1  and  _3
REMARK    2  A    between atoms: _3  and  _4
REMARK    3  A    between atoms: _3  and  _6
REMARK    4  A    between atoms: _6  and  _7
REMARK    5  A    between atoms: _7  and  _8
REMARK    6  A    between atoms: _8  and  _9
REMARK    7  A    between atoms: _19  and  _20
REMARK    8  A    between atoms: _25  and  _27
REMARK    9  A    between atoms: _27  and  _28
REMARK   10  A    between atoms: _27  and  _30
REMARK   11  A    between atoms: _30  and  _31
REMARK   12  A    between atoms: _33  and  _35
REMARK   13  A    between atoms: _35  and  _36
REMARK   14  A    between atoms: _38  and  _40
REMARK   15  A    between atoms: _40  and  _41
REMARK   16  A    between atoms: _44  and  _46
REMARK   17  A    between atoms: _46  and  _47
REMARK   18  A    between atoms: _46  and  _49
REMARK   19  A    between atoms: _47  and  _48
REMARK   20  A    between atoms: _47  and  _52
REMARK   21  A    between atoms: _48  and  ZN_381
REMARK   22  A    between atoms: _49  and  _50
REMARK   23  A    between atoms: _52  and  _54
REMARK   24  A    between atoms: _54  and  _55
REMARK   25  A    between atoms: _54  and  _57
REMARK   26  A    between atoms: _57  and  _58
REMARK   27  A    between atoms: _61  and  _63
REMARK   28  A    between atoms: _63  and  _64
REMARK   29  A    between atoms: _66  and  _68
REMARK   30  A    between atoms: _68  and  _69
REMARK   31  A    between atoms: _68  and  _71
REMARK   32  A    between atoms: _71  and  _72
REMARK   33  A    between atoms: _72  and  _73
REMARK   34  A    between atoms: _76  and  _78
REMARK   35  A    between atoms: _78  and  _79
REMARK   36  A    between atoms: _78  and  _81
REMARK   37  A    between atoms: _81  and  _82
REMARK   38  A    between atoms: _87  and  _89
REMARK   39  A    between atoms: _89  and  _90
REMARK   40  A    between atoms: _92  and  _94
REMARK   41  A    between atoms: _94  and  _95
REMARK   42  A    between atoms: _94  and  _97
REMARK   43  A    between atoms: _97  and  _98
REMARK   44  A    between atoms: _98  and  _99
REMARK   45  A    between atoms: _99  and  _100
REMARK   46  A    between atoms: _100  and  _101
REMARK   47  A    between atoms: _105  and  _107
REMARK   48  A    between atoms: _107  and  _108
REMARK   49  A    between atoms: _107  and  _110
REMARK   50  A    between atoms: _110  and  _111
REMARK   51  A    between atoms: _111  and  _112
REMARK   52  A    between atoms: _117  and  _119
REMARK   53  A    between atoms: _119  and  _120
REMARK   54  A    between atoms: _119  and  _122
REMARK   55  A    between atoms: _122  and  _123
REMARK   56  A    between atoms: _123  and  _124
REMARK   57  A    between atoms: _127  and  _129
REMARK   58  A    between atoms: _129  and  _130
REMARK   59  A    between atoms: _129  and  _132
REMARK   60  A    between atoms: _132  and  _133
REMARK   61  A    between atoms: _133  and  _134
REMARK   62  A    between atoms: _136  and  _138
REMARK   63  A    between atoms: _138  and  _139
REMARK   64  A    between atoms: _138  and  _141
REMARK   65  A    between atoms: _141  and  _142
REMARK   66  A    between atoms: _145  and  _147
REMARK   67  A    between atoms: _147  and  _148
REMARK   68  A    between atoms: _147  and  _150
REMARK   69  A    between atoms: _150  and  _151
REMARK   70  A    between atoms: _151  and  _152
REMARK   71  A    between atoms: _155  and  _157
REMARK   72  A    between atoms: _157  and  _158
REMARK   73  A    between atoms: _157  and  _160
REMARK   74  A    between atoms: _160  and  _161
REMARK   75  A    between atoms: _161  and  _163
REMARK   76  A    between atoms: _163  and  ZN_380
REMARK   77  A    between atoms: _164  and  _166
REMARK   78  A    between atoms: _166  and  _167
REMARK   79  A    between atoms: _166  and  _169
REMARK   80  A    between atoms: _171  and  _173
REMARK   81  A    between atoms: _173  and  _174
REMARK   82  A    between atoms: _177  and  _179
REMARK   83  A    between atoms: _179  and  _180
REMARK   84  A    between atoms: _179  and  _182
REMARK   85  A    between atoms: _182  and  _183
REMARK   86  A    between atoms: _183  and  _184
REMARK   87  A    between atoms: _187  and  _189
REMARK   88  A    between atoms: _189  and  _190
REMARK   89  A    between atoms: _189  and  _192
REMARK   90  A    between atoms: _192  and  _193
REMARK   91  A    between atoms: _193  and  _194
REMARK   92  A    between atoms: _194  and  _196
REMARK   93  A    between atoms: _196  and  ZN_380
REMARK   94  A    between atoms: _197  and  _199
REMARK   95  A    between atoms: _199  and  _200
REMARK   96  A    between atoms: _199  and  _202
REMARK   97  A    between atoms: _202  and  _203
REMARK   98  A    between atoms: _206  and  _208
REMARK   99  A    between atoms: _208  and  _209
REMARK  100  A    between atoms: _208  and  _211
REMARK  101  A    between atoms: _214  and  _216
REMARK  102  A    between atoms: _216  and  _217
REMARK  103  A    between atoms: _219  and  _221
REMARK  104  A    between atoms: _221  and  _222
REMARK  105  A    between atoms: _221  and  _224
REMARK  106  A    between atoms: _224  and  _225
REMARK  107  A    between atoms: _225  and  _227
REMARK  108  A    between atoms: _227  and  ZN_380
REMARK  109  A    between atoms: _228  and  _230
REMARK  110  A    between atoms: _230  and  _231
REMARK  111  A    between atoms: _230  and  _233
REMARK  112  A    between atoms: _233  and  _234
REMARK  113  A    between atoms: _237  and  _239
REMARK  114  A    between atoms: _239  and  _240
REMARK  115  A    between atoms: _239  and  _242
REMARK  116  A    between atoms: _242  and  _243
REMARK  117  A    between atoms: _246  and  _248
REMARK  118  A    between atoms: _248  and  _249
REMARK  119  A    between atoms: _248  and  _251
REMARK  120  A    between atoms: _251  and  _252
REMARK  121  A    between atoms: _252  and  _253
REMARK  122  A    between atoms: _253  and  _254
REMARK  123  A    between atoms: _254  and  _255
REMARK  124  A    between atoms: _259  and  _261
REMARK  125  A    between atoms: _261  and  _262
REMARK  126  A    between atoms: _261  and  _264
REMARK  127  A    between atoms: _264  and  _265
REMARK  128  A    between atoms: _270  and  _272
REMARK  129  A    between atoms: _272  and  _273
REMARK  130  A    between atoms: _272  and  _275
REMARK  131  A    between atoms: _275  and  _276
REMARK  132  A    between atoms: _276  and  _277
REMARK  133  A    between atoms: _282  and  _284
REMARK  134  A    between atoms: _284  and  _285
REMARK  135  A    between atoms: _284  and  _287
REMARK  136  A    between atoms: _287  and  _288
REMARK  137  A    between atoms: _288  and  _289
REMARK  138  A    between atoms: _291  and  _293
REMARK  139  A    between atoms: _293  and  _294
REMARK  140  A    between atoms: _293  and  _296
REMARK  141  A    between atoms: _296  and  _297
REMARK  142  A    between atoms: _299  and  _301
REMARK  143  A    between atoms: _301  and  _302
REMARK  144  A    between atoms: _301  and  _304
REMARK  145  A    between atoms: _304  and  _305
REMARK  146  A    between atoms: _310  and  _312
REMARK  147  A    between atoms: _312  and  _313
REMARK  148  A    between atoms: _312  and  _315
REMARK  149  A    between atoms: _315  and  _316
REMARK  150  A    between atoms: _316  and  _317
REMARK  151  A    between atoms: _317  and  _318
REMARK  152  A    between atoms: _327  and  _329
REMARK  153  A    between atoms: _329  and  _330
REMARK  154  A    between atoms: _329  and  _332
REMARK  155  A    between atoms: _332  and  _333
REMARK  156  A    between atoms: _335  and  _337
REMARK  157  A    between atoms: _337  and  _338
REMARK  158  A    between atoms: _340  and  _342
REMARK  159  A    between atoms: _342  and  _343
REMARK  160  A    between atoms: _342  and  _345
REMARK  161  A    between atoms: _345  and  _346
REMARK  162  A    between atoms: _346  and  _347
REMARK  163  A    between atoms: _350  and  _352
REMARK  164  A    between atoms: _352  and  _353
REMARK  165  A    between atoms: _352  and  _355
REMARK  166  A    between atoms: _355  and  _356
REMARK  167  A    between atoms: _356  and  _357
REMARK  168  A    between atoms: _357  and  _358
REMARK  169  A    between atoms: _358  and  _359
REMARK  170  A    between atoms: _363  and  _365
REMARK  171  A    between atoms: _365  and  _366
REMARK  172  A    between atoms: _365  and  _368
REMARK  173  A    between atoms: _368  and  _369
REMARK  174  A    between atoms: _369  and  _370
REMARK  175  A    between atoms: _370  and  _371
REMARK                            x       y       z     vdW  Elec       q    Type
REMARK                         _______ _______ _______ _____ _____    ______ ____
ROOT
ATOM      1  O   HOH     1      27.404  30.899 -22.453  0.00  0.00    +0.000 OA
ENDROOT
TORSDOF 0
REMARK  Name = ../refined-set-2016/2pu1/2pu1_pocket.pdb
REMARK  175 active torsions:
REMARK  status: ('A' for Active; 'I' for Inactive)
REMARK    1  A    between atoms: _1  and  _3
REMARK    2  A    between atoms: _3  and  _4
REMARK    3  A    between atoms: _3  and  _6
REMARK    4  A    between atoms: _6  and  _7
REMARK    5  A    between atoms: _7  and  _8
REMARK    6  A    between atoms: _8  and  _9
REMARK    7  A    between atoms: _19  and  _20
REMARK    8  A    between atoms: _25  and  _27
REMARK    9  A    between atoms: _27  and  _28
REMARK   10  A    between atoms: _27  and  _30
REMARK   11  A    between atoms: _30  and  _31
REMARK   12  A    between atoms: _33  and  _35
REMARK   13  A    between atoms: _35  and  _36
REMARK   14  A    between atoms: _38  and  _40
REMARK   15  A    between atoms: _40  and  _41
REMARK   16  A    between atoms: _44  and  _46
REMARK   17  A    between atoms: _46  and  _47
REMARK   18  A    between atoms: _46  and  _49
REMARK   19  A    between atoms: _47  and  _48
REMARK   20  A    between atoms: _47  and  _52
REMARK   21  A    between atoms: _48  and  ZN_381
REMARK   22  A    between atoms: _49  and  _50
REMARK   23  A    between atoms: _52  and  _54
REMARK   24  A    between atoms: _54  and  _55
REMARK   25  A    between atoms: _54  and  _57
REMARK   26  A    between atoms: _57  and  _58
REMARK   27  A    between atoms: _61  and  _63
REMARK   28  A    between atoms: _63  and  _64
REMARK   29  A    between atoms: _66  and  _68
REMARK   30  A    between atoms: _68  and  _69
REMARK   31  A    between atoms: _68  and  _71
REMARK   32  A    between atoms: _71  and  _72
REMARK   33  A    between atoms: _72  and  _73
REMARK   34  A    between atoms: _76  and  _78
REMARK   35  A    between atoms: _78  and  _79
REMARK   36  A    between atoms: _78  and  _81
REMARK   37  A    between atoms: _81  and  _82
REMARK   38  A    between atoms: _87  and  _89
REMARK   39  A    between atoms: _89  and  _90
REMARK   40  A    between atoms: _92  and  _94
REMARK   41  A    between atoms: _94  and  _95
REMARK   42  A    between atoms: _94  and  _97
REMARK   43  A    between atoms: _97  and  _98
REMARK   44  A    between atoms: _98  and  _99
REMARK   45  A    between atoms: _99  and  _100
REMARK   46  A    between atoms: _100  and  _101
REMARK   47  A    between atoms: _105  and  _107
REMARK   48  A    between atoms: _107  and  _108
REMARK   49  A    between atoms: _107  and  _110
REMARK   50  A    between atoms: _110  and  _111
REMARK   51  A    between atoms: _111  and  _112
REMARK   52  A    between atoms: _117  and  _119
REMARK   53  A    between atoms: _119  and  _120
REMARK   54  A    between atoms: _119  and  _122
REMARK   55  A    between atoms: _122  and  _123
REMARK   56  A    between atoms: _123  and  _124
REMARK   57  A    between atoms: _127  and  _129
REMARK   58  A    between atoms: _129  and  _130
REMARK   59  A    between atoms: _129  and  _132
REMARK   60  A    between atoms: _132  and  _133
REMARK   61  A    between atoms: _133  and  _134
REMARK   62  A    between atoms: _136  and  _138
REMARK   63  A    between atoms: _138  and  _139
REMARK   64  A    between atoms: _138  and  _141
REMARK   65  A    between atoms: _141  and  _142
REMARK   66  A    between atoms: _145  and  _147
REMARK   67  A    between atoms: _147  and  _148
REMARK   68  A    between atoms: _147  and  _150
REMARK   69  A    between atoms: _150  and  _151
REMARK   70  A    between atoms: _151  and  _152
REMARK   71  A    between atoms: _155  and  _157
REMARK   72  A    between atoms: _157  and  _158
REMARK   73  A    between atoms: _157  and  _160
REMARK   74  A    between atoms: _160  and  _161
REMARK   75  A    between atoms: _161  and  _163
REMARK   76  A    between atoms: _163  and  ZN_380
REMARK   77  A    between atoms: _164  and  _166
REMARK   78  A    between atoms: _166  and  _167
REMARK   79  A    between atoms: _166  and  _169
REMARK   80  A    between atoms: _171  and  _173
REMARK   81  A    between atoms: _173  and  _174
REMARK   82  A    between atoms: _177  and  _179
REMARK   83  A    between atoms: _179  and  _180
REMARK   84  A    between atoms: _179  and  _182
REMARK   85  A    between atoms: _182  and  _183
REMARK   86  A    between atoms: _183  and  _184
REMARK   87  A    between atoms: _187  and  _189
REMARK   88  A    between atoms: _189  and  _190
REMARK   89  A    between atoms: _189  and  _192
REMARK   90  A    between atoms: _192  and  _193
REMARK   91  A    between atoms: _193  and  _194
REMARK   92  A    between atoms: _194  and  _196
REMARK   93  A    between atoms: _196  and  ZN_380
REMARK   94  A    between atoms: _197  and  _199
REMARK   95  A    between atoms: _199  and  _200
REMARK   96  A    between atoms: _199  and  _202
REMARK   97  A    between atoms: _202  and  _203
REMARK   98  A    between atoms: _206  and  _208
REMARK   99  A    between atoms: _208  and  _209
REMARK  100  A    between atoms: _208  and  _211
REMARK  101  A    between atoms: _214  and  _216
REMARK  102  A    between atoms: _216  and  _217
REMARK  103  A    between atoms: _219  and  _221
REMARK  104  A    between atoms: _221  and  _222
REMARK  105  A    between atoms: _221  and  _224
REMARK  106  A    between atoms: _224  and  _225
REMARK  107  A    between atoms: _225  and  _227
REMARK  108  A    between atoms: _227  and  ZN_380
REMARK  109  A    between atoms: _228  and  _230
REMARK  110  A    between atoms: _230  and  _231
REMARK  111  A    between atoms: _230  and  _233
REMARK  112  A    between atoms: _233  and  _234
REMARK  113  A    between atoms: _237  and  _239
REMARK  114  A    between atoms: _239  and  _240
REMARK  115  A    between atoms: _239  and  _242
REMARK  116  A    between atoms: _242  and  _243
REMARK  117  A    between atoms: _246  and  _248
REMARK  118  A    between atoms: _248  and  _249
REMARK  119  A    between atoms: _248  and  _251
REMARK  120  A    between atoms: _251  and  _252
REMARK  121  A    between atoms: _252  and  _253
REMARK  122  A    between atoms: _253  and  _254
REMARK  123  A    between atoms: _254  and  _255
REMARK  124  A    between atoms: _259  and  _261
REMARK  125  A    between atoms: _261  and  _262
REMARK  126  A    between atoms: _261  and  _264
REMARK  127  A    between atoms: _264  and  _265
REMARK  128  A    between atoms: _270  and  _272
REMARK  129  A    between atoms: _272  and  _273
REMARK  130  A    between atoms: _272  and  _275
REMARK  131  A    between atoms: _275  and  _276
REMARK  132  A    between atoms: _276  and  _277
REMARK  133  A    between atoms: _282  and  _284
REMARK  134  A    between atoms: _284  and  _285
REMARK  135  A    between atoms: _284  and  _287
REMARK  136  A    between atoms: _287  and  _288
REMARK  137  A    between atoms: _288  and  _289
REMARK  138  A    between atoms: _291  and  _293
REMARK  139  A    between atoms: _293  and  _294
REMARK  140  A    between atoms: _293  and  _296
REMARK  141  A    between atoms: _296  and  _297
REMARK  142  A    between atoms: _299  and  _301
REMARK  143  A    between atoms: _301  and  _302
REMARK  144  A    between atoms: _301  and  _304
REMARK  145  A    between atoms: _304  and  _305
REMARK  146  A    between atoms: _310  and  _312
REMARK  147  A    between atoms: _312  and  _313
REMARK  148  A    between atoms: _312  and  _315
REMARK  149  A    between atoms: _315  and  _316
REMARK  150  A    between atoms: _316  and  _317
REMARK  151  A    between atoms: _317  and  _318
REMARK  152  A    between atoms: _327  and  _329
REMARK  153  A    between atoms: _329  and  _330
REMARK  154  A    between atoms: _329  and  _332
REMARK  155  A    between atoms: _332  and  _333
REMARK  156  A    between atoms: _335  and  _337
REMARK  157  A    between atoms: _337  and  _338
REMARK  158  A    between atoms: _340  and  _342
REMARK  159  A    between atoms: _342  and  _343
REMARK  160  A    between atoms: _342  and  _345
REMARK  161  A    between atoms: _345  and  _346
REMARK  162  A    between atoms: _346  and  _347
REMARK  163  A    between atoms: _350  and  _352
REMARK  164  A    between atoms: _352  and  _353
REMARK  165  A    between atoms: _352  and  _355
REMARK  166  A    between atoms: _355  and  _356
REMARK  167  A    between atoms: _356  and  _357
REMARK  168  A    between atoms: _357  and  _358
REMARK  169  A    between atoms: _358  and  _359
REMARK  170  A    between atoms: _363  and  _365
REMARK  171  A    between atoms: _365  and  _366
REMARK  172  A    between atoms: _365  and  _368
REMARK  173  A    between atoms: _368  and  _369
REMARK  174  A    between atoms: _369  and  _370
REMARK  175  A    between atoms: _370  and  _371
REMARK                            x       y       z     vdW  Elec       q    Type
REMARK                         _______ _______ _______ _____ _____    ______ ____
ROOT
ATOM      1  O   HOH     1      22.504  30.009 -10.864  0.00  0.00    +0.000 OA
ENDROOT
TORSDOF 0
REMARK  Name = ../refined-set-2016/2pu1/2pu1_pocket.pdb
REMARK  175 active torsions:
REMARK  status: ('A' for Active; 'I' for Inactive)
REMARK    1  A    between atoms: _1  and  _3
REMARK    2  A    between atoms: _3  and  _4
REMARK    3  A    between atoms: _3  and  _6
REMARK    4  A    between atoms: _6  and  _7
REMARK    5  A    between atoms: _7  and  _8
REMARK    6  A    between atoms: _8  and  _9
REMARK    7  A    between atoms: _19  and  _20
REMARK    8  A    between atoms: _25  and  _27
REMARK    9  A    between atoms: _27  and  _28
REMARK   10  A    between atoms: _27  and  _30
REMARK   11  A    between atoms: _30  and  _31
REMARK   12  A    between atoms: _33  and  _35
REMARK   13  A    between atoms: _35  and  _36
REMARK   14  A    between atoms: _38  and  _40
REMARK   15  A    between atoms: _40  and  _41
REMARK   16  A    between atoms: _44  and  _46
REMARK   17  A    between atoms: _46  and  _47
REMARK   18  A    between atoms: _46  and  _49
REMARK   19  A    between atoms: _47  and  _48
REMARK   20  A    between atoms: _47  and  _52
REMARK   21  A    between atoms: _48  and  ZN_381
REMARK   22  A    between atoms: _49  and  _50
REMARK   23  A    between atoms: _52  and  _54
REMARK   24  A    between atoms: _54  and  _55
REMARK   25  A    between atoms: _54  and  _57
REMARK   26  A    between atoms: _57  and  _58
REMARK   27  A    between atoms: _61  and  _63
REMARK   28  A    between atoms: _63  and  _64
REMARK   29  A    between atoms: _66  and  _68
REMARK   30  A    between atoms: _68  and  _69
REMARK   31  A    between atoms: _68  and  _71
REMARK   32  A    between atoms: _71  and  _72
REMARK   33  A    between atoms: _72  and  _73
REMARK   34  A    between atoms: _76  and  _78
REMARK   35  A    between atoms: _78  and  _79
REMARK   36  A    between atoms: _78  and  _81
REMARK   37  A    between atoms: _81  and  _82
REMARK   38  A    between atoms: _87  and  _89
REMARK   39  A    between atoms: _89  and  _90
REMARK   40  A    between atoms: _92  and  _94
REMARK   41  A    between atoms: _94  and  _95
REMARK   42  A    between atoms: _94  and  _97
REMARK   43  A    between atoms: _97  and  _98
REMARK   44  A    between atoms: _98  and  _99
REMARK   45  A    between atoms: _99  and  _100
REMARK   46  A    between atoms: _100  and  _101
REMARK   47  A    between atoms: _105  and  _107
REMARK   48  A    between atoms: _107  and  _108
REMARK   49  A    between atoms: _107  and  _110
REMARK   50  A    between atoms: _110  and  _111
REMARK   51  A    between atoms: _111  and  _112
REMARK   52  A    between atoms: _117  and  _119
REMARK   53  A    between atoms: _119  and  _120
REMARK   54  A    between atoms: _119  and  _122
REMARK   55  A    between atoms: _122  and  _123
REMARK   56  A    between atoms: _123  and  _124
REMARK   57  A    between atoms: _127  and  _129
REMARK   58  A    between atoms: _129  and  _130
REMARK   59  A    between atoms: _129  and  _132
REMARK   60  A    between atoms: _132  and  _133
REMARK   61  A    between atoms: _133  and  _134
REMARK   62  A    between atoms: _136  and  _138
REMARK   63  A    between atoms: _138  and  _139
REMARK   64  A    between atoms: _138  and  _141
REMARK   65  A    between atoms: _141  and  _142
REMARK   66  A    between atoms: _145  and  _147
REMARK   67  A    between atoms: _147  and  _148
REMARK   68  A    between atoms: _147  and  _150
REMARK   69  A    between atoms: _150  and  _151
REMARK   70  A    between atoms: _151  and  _152
REMARK   71  A    between atoms: _155  and  _157
REMARK   72  A    between atoms: _157  and  _158
REMARK   73  A    between atoms: _157  and  _160
REMARK   74  A    between atoms: _160  and  _161
REMARK   75  A    between atoms: _161  and  _163
REMARK   76  A    between atoms: _163  and  ZN_380
REMARK   77  A    between atoms: _164  and  _166
REMARK   78  A    between atoms: _166  and  _167
REMARK   79  A    between atoms: _166  and  _169
REMARK   80  A    between atoms: _171  and  _173
REMARK   81  A    between atoms: _173  and  _174
REMARK   82  A    between atoms: _177  and  _179
REMARK   83  A    between atoms: _179  and  _180
REMARK   84  A    between atoms: _179  and  _182
REMARK   85  A    between atoms: _182  and  _183
REMARK   86  A    between atoms: _183  and  _184
REMARK   87  A    between atoms: _187  and  _189
REMARK   88  A    between atoms: _189  and  _190
REMARK   89  A    between atoms: _189  and  _192
REMARK   90  A    between atoms: _192  and  _193
REMARK   91  A    between atoms: _193  and  _194
REMARK   92  A    between atoms: _194  and  _196
REMARK   93  A    between atoms: _196  and  ZN_380
REMARK   94  A    between atoms: _197  and  _199
REMARK   95  A    between atoms: _199  and  _200
REMARK   96  A    between atoms: _199  and  _202
REMARK   97  A    between atoms: _202  and  _203
REMARK   98  A    between atoms: _206  and  _208
REMARK   99  A    between atoms: _208  and  _209
REMARK  100  A    between atoms: _208  and  _211
REMARK  101  A    between atoms: _214  and  _216
REMARK  102  A    between atoms: _216  and  _217
REMARK  103  A    between atoms: _219  and  _221
REMARK  104  A    between atoms: _221  and  _222
REMARK  105  A    between atoms: _221  and  _224
REMARK  106  A    between atoms: _224  and  _225
REMARK  107  A    between atoms: _225  and  _227
REMARK  108  A    between atoms: _227  and  ZN_380
REMARK  109  A    between atoms: _228  and  _230
REMARK  110  A    between atoms: _230  and  _231
REMARK  111  A    between atoms: _230  and  _233
REMARK  112  A    between atoms: _233  and  _234
REMARK  113  A    between atoms: _237  and  _239
REMARK  114  A    between atoms: _239  and  _240
REMARK  115  A    between atoms: _239  and  _242
REMARK  116  A    between atoms: _242  and  _243
REMARK  117  A    between atoms: _246  and  _248
REMARK  118  A    between atoms: _248  and  _249
REMARK  119  A    between atoms: _248  and  _251
REMARK  120  A    between atoms: _251  and  _252
REMARK  121  A    between atoms: _252  and  _253
REMARK  122  A    between atoms: _253  and  _254
REMARK  123  A    between atoms: _254  and  _255
REMARK  124  A    between atoms: _259  and  _261
REMARK  125  A    between atoms: _261  and  _262
REMARK  126  A    between atoms: _261  and  _264
REMARK  127  A    between atoms: _264  and  _265
REMARK  128  A    between atoms: _270  and  _272
REMARK  129  A    between atoms: _272  and  _273
REMARK  130  A    between atoms: _272  and  _275
REMARK  131  A    between atoms: _275  and  _276
REMARK  132  A    between atoms: _276  and  _277
REMARK  133  A    between atoms: _282  and  _284
REMARK  134  A    between atoms: _284  and  _285
REMARK  135  A    between atoms: _284  and  _287
REMARK  136  A    between atoms: _287  and  _288
REMARK  137  A    between atoms: _288  and  _289
REMARK  138  A    between atoms: _291  and  _293
REMARK  139  A    between atoms: _293  and  _294
REMARK  140  A    between atoms: _293  and  _296
REMARK  141  A    between atoms: _296  and  _297
REMARK  142  A    between atoms: _299  and  _301
REMARK  143  A    between atoms: _301  and  _302
REMARK  144  A    between atoms: _301  and  _304
REMARK  145  A    between atoms: _304  and  _305
REMARK  146  A    between atoms: _310  and  _312
REMARK  147  A    between atoms: _312  and  _313
REMARK  148  A    between atoms: _312  and  _315
REMARK  149  A    between atoms: _315  and  _316
REMARK  150  A    between atoms: _316  and  _317
REMARK  151  A    between atoms: _317  and  _318
REMARK  152  A    between atoms: _327  and  _329
REMARK  153  A    between atoms: _329  and  _330
REMARK  154  A    between atoms: _329  and  _332
REMARK  155  A    between atoms: _332  and  _333
REMARK  156  A    between atoms: _335  and  _337
REMARK  157  A    between atoms: _337  and  _338
REMARK  158  A    between atoms: _340  and  _342
REMARK  159  A    between atoms: _342  and  _343
REMARK  160  A    between atoms: _342  and  _345
REMARK  161  A    between atoms: _345  and  _346
REMARK  162  A    between atoms: _346  and  _347
REMARK  163  A    between atoms: _350  and  _352
REMARK  164  A    between atoms: _352  and  _353
REMARK  165  A    between atoms: _352  and  _355
REMARK  166  A    between atoms: _355  and  _356
REMARK  167  A    between atoms: _356  and  _357
REMARK  168  A    between atoms: _357  and  _358
REMARK  169  A    between atoms: _358  and  _359
REMARK  170  A    between atoms: _363  and  _365
REMARK  171  A    between atoms: _365  and  _366
REMARK  172  A    between atoms: _365  and  _368
REMARK  173  A    between atoms: _368  and  _369
REMARK  174  A    between atoms: _369  and  _370
REMARK  175  A    between atoms: _370  and  _371
REMARK                            x       y       z     vdW  Elec       q    Type
REMARK                         _______ _______ _______ _____ _____    ______ ____
ROOT
ATOM      1  O   HOH     1      31.249  24.312 -10.009  0.00  0.00    +0.000 OA
ENDROOT
TORSDOF 0
REMARK  Name = ../refined-set-2016/2pu1/2pu1_pocket.pdb
REMARK  175 active torsions:
REMARK  status: ('A' for Active; 'I' for Inactive)
REMARK    1  A    between atoms: _1  and  _3
REMARK    2  A    between atoms: _3  and  _4
REMARK    3  A    between atoms: _3  and  _6
REMARK    4  A    between atoms: _6  and  _7
REMARK    5  A    between atoms: _7  and  _8
REMARK    6  A    between atoms: _8  and  _9
REMARK    7  A    between atoms: _19  and  _20
REMARK    8  A    between atoms: _25  and  _27
REMARK    9  A    between atoms: _27  and  _28
REMARK   10  A    between atoms: _27  and  _30
REMARK   11  A    between atoms: _30  and  _31
REMARK   12  A    between atoms: _33  and  _35
REMARK   13  A    between atoms: _35  and  _36
REMARK   14  A    between atoms: _38  and  _40
REMARK   15  A    between atoms: _40  and  _41
REMARK   16  A    between atoms: _44  and  _46
REMARK   17  A    between atoms: _46  and  _47
REMARK   18  A    between atoms: _46  and  _49
REMARK   19  A    between atoms: _47  and  _48
REMARK   20  A    between atoms: _47  and  _52
REMARK   21  A    between atoms: _48  and  ZN_381
REMARK   22  A    between atoms: _49  and  _50
REMARK   23  A    between atoms: _52  and  _54
REMARK   24  A    between atoms: _54  and  _55
REMARK   25  A    between atoms: _54  and  _57
REMARK   26  A    between atoms: _57  and  _58
REMARK   27  A    between atoms: _61  and  _63
REMARK   28  A    between atoms: _63  and  _64
REMARK   29  A    between atoms: _66  and  _68
REMARK   30  A    between atoms: _68  and  _69
REMARK   31  A    between atoms: _68  and  _71
REMARK   32  A    between atoms: _71  and  _72
REMARK   33  A    between atoms: _72  and  _73
REMARK   34  A    between atoms: _76  and  _78
REMARK   35  A    between atoms: _78  and  _79
REMARK   36  A    between atoms: _78  and  _81
REMARK   37  A    between atoms: _81  and  _82
REMARK   38  A    between atoms: _87  and  _89
REMARK   39  A    between atoms: _89  and  _90
REMARK   40  A    between atoms: _92  and  _94
REMARK   41  A    between atoms: _94  and  _95
REMARK   42  A    between atoms: _94  and  _97
REMARK   43  A    between atoms: _97  and  _98
REMARK   44  A    between atoms: _98  and  _99
REMARK   45  A    between atoms: _99  and  _100
REMARK   46  A    between atoms: _100  and  _101
REMARK   47  A    between atoms: _105  and  _107
REMARK   48  A    between atoms: _107  and  _108
REMARK   49  A    between atoms: _107  and  _110
REMARK   50  A    between atoms: _110  and  _111
REMARK   51  A    between atoms: _111  and  _112
REMARK   52  A    between atoms: _117  and  _119
REMARK   53  A    between atoms: _119  and  _120
REMARK   54  A    between atoms: _119  and  _122
REMARK   55  A    between atoms: _122  and  _123
REMARK   56  A    between atoms: _123  and  _124
REMARK   57  A    between atoms: _127  and  _129
REMARK   58  A    between atoms: _129  and  _130
REMARK   59  A    between atoms: _129  and  _132
REMARK   60  A    between atoms: _132  and  _133
REMARK   61  A    between atoms: _133  and  _134
REMARK   62  A    between atoms: _136  and  _138
REMARK   63  A    between atoms: _138  and  _139
REMARK   64  A    between atoms: _138  and  _141
REMARK   65  A    between atoms: _141  and  _142
REMARK   66  A    between atoms: _145  and  _147
REMARK   67  A    between atoms: _147  and  _148
REMARK   68  A    between atoms: _147  and  _150
REMARK   69  A    between atoms: _150  and  _151
REMARK   70  A    between atoms: _151  and  _152
REMARK   71  A    between atoms: _155  and  _157
REMARK   72  A    between atoms: _157  and  _158
REMARK   73  A    between atoms: _157  and  _160
REMARK   74  A    between atoms: _160  and  _161
REMARK   75  A    between atoms: _161  and  _163
REMARK   76  A    between atoms: _163  and  ZN_380
REMARK   77  A    between atoms: _164  and  _166
REMARK   78  A    between atoms: _166  and  _167
REMARK   79  A    between atoms: _166  and  _169
REMARK   80  A    between atoms: _171  and  _173
REMARK   81  A    between atoms: _173  and  _174
REMARK   82  A    between atoms: _177  and  _179
REMARK   83  A    between atoms: _179  and  _180
REMARK   84  A    between atoms: _179  and  _182
REMARK   85  A    between atoms: _182  and  _183
REMARK   86  A    between atoms: _183  and  _184
REMARK   87  A    between atoms: _187  and  _189
REMARK   88  A    between atoms: _189  and  _190
REMARK   89  A    between atoms: _189  and  _192
REMARK   90  A    between atoms: _192  and  _193
REMARK   91  A    between atoms: _193  and  _194
REMARK   92  A    between atoms: _194  and  _196
REMARK   93  A    between atoms: _196  and  ZN_380
REMARK   94  A    between atoms: _197  and  _199
REMARK   95  A    between atoms: _199  and  _200
REMARK   96  A    between atoms: _199  and  _202
REMARK   97  A    between atoms: _202  and  _203
REMARK   98  A    between atoms: _206  and  _208
REMARK   99  A    between atoms: _208  and  _209
REMARK  100  A    between atoms: _208  and  _211
REMARK  101  A    between atoms: _214  and  _216
REMARK  102  A    between atoms: _216  and  _217
REMARK  103  A    between atoms: _219  and  _221
REMARK  104  A    between atoms: _221  and  _222
REMARK  105  A    between atoms: _221  and  _224
REMARK  106  A    between atoms: _224  and  _225
REMARK  107  A    between atoms: _225  and  _227
REMARK  108  A    between atoms: _227  and  ZN_380
REMARK  109  A    between atoms: _228  and  _230
REMARK  110  A    between atoms: _230  and  _231
REMARK  111  A    between atoms: _230  and  _233
REMARK  112  A    between atoms: _233  and  _234
REMARK  113  A    between atoms: _237  and  _239
REMARK  114  A    between atoms: _239  and  _240
REMARK  115  A    between atoms: _239  and  _242
REMARK  116  A    between atoms: _242  and  _243
REMARK  117  A    between atoms: _246  and  _248
REMARK  118  A    between atoms: _248  and  _249
REMARK  119  A    between atoms: _248  and  _251
REMARK  120  A    between atoms: _251  and  _252
REMARK  121  A    between atoms: _252  and  _253
REMARK  122  A    between atoms: _253  and  _254
REMARK  123  A    between atoms: _254  and  _255
REMARK  124  A    between atoms: _259  and  _261
REMARK  125  A    between atoms: _261  and  _262
REMARK  126  A    between atoms: _261  and  _264
REMARK  127  A    between atoms: _264  and  _265
REMARK  128  A    between atoms: _270  and  _272
REMARK  129  A    between atoms: _272  and  _273
REMARK  130  A    between atoms: _272  and  _275
REMARK  131  A    between atoms: _275  and  _276
REMARK  132  A    between atoms: _276  and  _277
REMARK  133  A    between atoms: _282  and  _284
REMARK  134  A    between atoms: _284  and  _285
REMARK  135  A    between atoms: _284  and  _287
REMARK  136  A    between atoms: _287  and  _288
REMARK  137  A    between atoms: _288  and  _289
REMARK  138  A    between atoms: _291  and  _293
REMARK  139  A    between atoms: _293  and  _294
REMARK  140  A    between atoms: _293  and  _296
REMARK  141  A    between atoms: _296  and  _297
REMARK  142  A    between atoms: _299  and  _301
REMARK  143  A    between atoms: _301  and  _302
REMARK  144  A    between atoms: _301  and  _304
REMARK  145  A    between atoms: _304  and  _305
REMARK  146  A    between atoms: _310  and  _312
REMARK  147  A    between atoms: _312  and  _313
REMARK  148  A    between atoms: _312  and  _315
REMARK  149  A    between atoms: _315  and  _316
REMARK  150  A    between atoms: _316  and  _317
REMARK  151  A    between atoms: _317  and  _318
REMARK  152  A    between atoms: _327  and  _329
REMARK  153  A    between atoms: _329  and  _330
REMARK  154  A    between atoms: _329  and  _332
REMARK  155  A    between atoms: _332  and  _333
REMARK  156  A    between atoms: _335  and  _337
REMARK  157  A    between atoms: _337  and  _338
REMARK  158  A    between atoms: _340  and  _342
REMARK  159  A    between atoms: _342  and  _343
REMARK  160  A    between atoms: _342  and  _345
REMARK  161  A    between atoms: _345  and  _346
REMARK  162  A    between atoms: _346  and  _347
REMARK  163  A    between atoms: _350  and  _352
REMARK  164  A    between atoms: _352  and  _353
REMARK  165  A    between atoms: _352  and  _355
REMARK  166  A    between atoms: _355  and  _356
REMARK  167  A    between atoms: _356  and  _357
REMARK  168  A    between atoms: _357  and  _358
REMARK  169  A    between atoms: _358  and  _359
REMARK  170  A    between atoms: _363  and  _365
REMARK  171  A    between atoms: _365  and  _366
REMARK  172  A    between atoms: _365  and  _368
REMARK  173  A    between atoms: _368  and  _369
REMARK  174  A    between atoms: _369  and  _370
REMARK  175  A    between atoms: _370  and  _371
REMARK                            x       y       z     vdW  Elec       q    Type
REMARK                         _______ _______ _______ _____ _____    ______ ____
ROOT
ATOM      1  O   HOH     1      33.637  24.646 -13.110  0.00  0.00    +0.000 OA
ENDROOT
TORSDOF 0
REMARK  Name = ../refined-set-2016/2pu1/2pu1_pocket.pdb
REMARK  175 active torsions:
REMARK  status: ('A' for Active; 'I' for Inactive)
REMARK    1  A    between atoms: _1  and  _3
REMARK    2  A    between atoms: _3  and  _4
REMARK    3  A    between atoms: _3  and  _6
REMARK    4  A    between atoms: _6  and  _7
REMARK    5  A    between atoms: _7  and  _8
REMARK    6  A    between atoms: _8  and  _9
REMARK    7  A    between atoms: _19  and  _20
REMARK    8  A    between atoms: _25  and  _27
REMARK    9  A    between atoms: _27  and  _28
REMARK   10  A    between atoms: _27  and  _30
REMARK   11  A    between atoms: _30  and  _31
REMARK   12  A    between atoms: _33  and  _35
REMARK   13  A    between atoms: _35  and  _36
REMARK   14  A    between atoms: _38  and  _40
REMARK   15  A    between atoms: _40  and  _41
REMARK   16  A    between atoms: _44  and  _46
REMARK   17  A    between atoms: _46  and  _47
REMARK   18  A    between atoms: _46  and  _49
REMARK   19  A    between atoms: _47  and  _48
REMARK   20  A    between atoms: _47  and  _52
REMARK   21  A    between atoms: _48  and  ZN_381
REMARK   22  A    between atoms: _49  and  _50
REMARK   23  A    between atoms: _52  and  _54
REMARK   24  A    between atoms: _54  and  _55
REMARK   25  A    between atoms: _54  and  _57
REMARK   26  A    between atoms: _57  and  _58
REMARK   27  A    between atoms: _61  and  _63
REMARK   28  A    between atoms: _63  and  _64
REMARK   29  A    between atoms: _66  and  _68
REMARK   30  A    between atoms: _68  and  _69
REMARK   31  A    between atoms: _68  and  _71
REMARK   32  A    between atoms: _71  and  _72
REMARK   33  A    between atoms: _72  and  _73
REMARK   34  A    between atoms: _76  and  _78
REMARK   35  A    between atoms: _78  and  _79
REMARK   36  A    between atoms: _78  and  _81
REMARK   37  A    between atoms: _81  and  _82
REMARK   38  A    between atoms: _87  and  _89
REMARK   39  A    between atoms: _89  and  _90
REMARK   40  A    between atoms: _92  and  _94
REMARK   41  A    between atoms: _94  and  _95
REMARK   42  A    between atoms: _94  and  _97
REMARK   43  A    between atoms: _97  and  _98
REMARK   44  A    between atoms: _98  and  _99
REMARK   45  A    between atoms: _99  and  _100
REMARK   46  A    between atoms: _100  and  _101
REMARK   47  A    between atoms: _105  and  _107
REMARK   48  A    between atoms: _107  and  _108
REMARK   49  A    between atoms: _107  and  _110
REMARK   50  A    between atoms: _110  and  _111
REMARK   51  A    between atoms: _111  and  _112
REMARK   52  A    between atoms: _117  and  _119
REMARK   53  A    between atoms: _119  and  _120
REMARK   54  A    between atoms: _119  and  _122
REMARK   55  A    between atoms: _122  and  _123
REMARK   56  A    between atoms: _123  and  _124
REMARK   57  A    between atoms: _127  and  _129
REMARK   58  A    between atoms: _129  and  _130
REMARK   59  A    between atoms: _129  and  _132
REMARK   60  A    between atoms: _132  and  _133
REMARK   61  A    between atoms: _133  and  _134
REMARK   62  A    between atoms: _136  and  _138
REMARK   63  A    between atoms: _138  and  _139
REMARK   64  A    between atoms: _138  and  _141
REMARK   65  A    between atoms: _141  and  _142
REMARK   66  A    between atoms: _145  and  _147
REMARK   67  A    between atoms: _147  and  _148
REMARK   68  A    between atoms: _147  and  _150
REMARK   69  A    between atoms: _150  and  _151
REMARK   70  A    between atoms: _151  and  _152
REMARK   71  A    between atoms: _155  and  _157
REMARK   72  A    between atoms: _157  and  _158
REMARK   73  A    between atoms: _157  and  _160
REMARK   74  A    between atoms: _160  and  _161
REMARK   75  A    between atoms: _161  and  _163
REMARK   76  A    between atoms: _163  and  ZN_380
REMARK   77  A    between atoms: _164  and  _166
REMARK   78  A    between atoms: _166  and  _167
REMARK   79  A    between atoms: _166  and  _169
REMARK   80  A    between atoms: _171  and  _173
REMARK   81  A    between atoms: _173  and  _174
REMARK   82  A    between atoms: _177  and  _179
REMARK   83  A    between atoms: _179  and  _180
REMARK   84  A    between atoms: _179  and  _182
REMARK   85  A    between atoms: _182  and  _183
REMARK   86  A    between atoms: _183  and  _184
REMARK   87  A    between atoms: _187  and  _189
REMARK   88  A    between atoms: _189  and  _190
REMARK   89  A    between atoms: _189  and  _192
REMARK   90  A    between atoms: _192  and  _193
REMARK   91  A    between atoms: _193  and  _194
REMARK   92  A    between atoms: _194  and  _196
REMARK   93  A    between atoms: _196  and  ZN_380
REMARK   94  A    between atoms: _197  and  _199
REMARK   95  A    between atoms: _199  and  _200
REMARK   96  A    between atoms: _199  and  _202
REMARK   97  A    between atoms: _202  and  _203
REMARK   98  A    between atoms: _206  and  _208
REMARK   99  A    between atoms: _208  and  _209
REMARK  100  A    between atoms: _208  and  _211
REMARK  101  A    between atoms: _214  and  _216
REMARK  102  A    between atoms: _216  and  _217
REMARK  103  A    between atoms: _219  and  _221
REMARK  104  A    between atoms: _221  and  _222
REMARK  105  A    between atoms: _221  and  _224
REMARK  106  A    between atoms: _224  and  _225
REMARK  107  A    between atoms: _225  and  _227
REMARK  108  A    between atoms: _227  and  ZN_380
REMARK  109  A    between atoms: _228  and  _230
REMARK  110  A    between atoms: _230  and  _231
REMARK  111  A    between atoms: _230  and  _233
REMARK  112  A    between atoms: _233  and  _234
REMARK  113  A    between atoms: _237  and  _239
REMARK  114  A    between atoms: _239  and  _240
REMARK  115  A    between atoms: _239  and  _242
REMARK  116  A    between atoms: _242  and  _243
REMARK  117  A    between atoms: _246  and  _248
REMARK  118  A    between atoms: _248  and  _249
REMARK  119  A    between atoms: _248  and  _251
REMARK  120  A    between atoms: _251  and  _252
REMARK  121  A    between atoms: _252  and  _253
REMARK  122  A    between atoms: _253  and  _254
REMARK  123  A    between atoms: _254  and  _255
REMARK  124  A    between atoms: _259  and  _261
REMARK  125  A    between atoms: _261  and  _262
REMARK  126  A    between atoms: _261  and  _264
REMARK  127  A    between atoms: _264  and  _265
REMARK  128  A    between atoms: _270  and  _272
REMARK  129  A    between atoms: _272  and  _273
REMARK  130  A    between atoms: _272  and  _275
REMARK  131  A    between atoms: _275  and  _276
REMARK  132  A    between atoms: _276  and  _277
REMARK  133  A    between atoms: _282  and  _284
REMARK  134  A    between atoms: _284  and  _285
REMARK  135  A    between atoms: _284  and  _287
REMARK  136  A    between atoms: _287  and  _288
REMARK  137  A    between atoms: _288  and  _289
REMARK  138  A    between atoms: _291  and  _293
REMARK  139  A    between atoms: _293  and  _294
REMARK  140  A    between atoms: _293  and  _296
REMARK  141  A    between atoms: _296  and  _297
REMARK  142  A    between atoms: _299  and  _301
REMARK  143  A    between atoms: _301  and  _302
REMARK  144  A    between atoms: _301  and  _304
REMARK  145  A    between atoms: _304  and  _305
REMARK  146  A    between atoms: _310  and  _312
REMARK  147  A    between atoms: _312  and  _313
REMARK  148  A    between atoms: _312  and  _315
REMARK  149  A    between atoms: _315  and  _316
REMARK  150  A    between atoms: _316  and  _317
REMARK  151  A    between atoms: _317  and  _318
REMARK  152  A    between atoms: _327  and  _329
REMARK  153  A    between atoms: _329  and  _330
REMARK  154  A    between atoms: _329  and  _332
REMARK  155  A    between atoms: _332  and  _333
REMARK  156  A    between atoms: _335  and  _337
REMARK  157  A    between atoms: _337  and  _338
REMARK  158  A    between atoms: _340  and  _342
REMARK  159  A    between atoms: _342  and  _343
REMARK  160  A    between atoms: _342  and  _345
REMARK  161  A    between atoms: _345  and  _346
REMARK  162  A    between atoms: _346  and  _347
REMARK  163  A    between atoms: _350  and  _352
REMARK  164  A    between atoms: _352  and  _353
REMARK  165  A    between atoms: _352  and  _355
REMARK  166  A    between atoms: _355  and  _356
REMARK  167  A    between atoms: _356  and  _357
REMARK  168  A    between atoms: _357  and  _358
REMARK  169  A    between atoms: _358  and  _359
REMARK  170  A    between atoms: _363  and  _365
REMARK  171  A    between atoms: _365  and  _366
REMARK  172  A    between atoms: _365  and  _368
REMARK  173  A    between atoms: _368  and  _369
REMARK  174  A    between atoms: _369  and  _370
REMARK  175  A    between atoms: _370  and  _371
REMARK                            x       y       z     vdW  Elec       q    Type
REMARK                         _______ _______ _______ _____ _____    ______ ____
ROOT
ATOM      1  O   HOH     1      17.168  25.219 -22.761  0.00  0.00    +0.000 OA
ENDROOT
TORSDOF 0
REMARK  Name = ../refined-set-2016/2pu1/2pu1_pocket.pdb
REMARK  175 active torsions:
REMARK  status: ('A' for Active; 'I' for Inactive)
REMARK    1  A    between atoms: _1  and  _3
REMARK    2  A    between atoms: _3  and  _4
REMARK    3  A    between atoms: _3  and  _6
REMARK    4  A    between atoms: _6  and  _7
REMARK    5  A    between atoms: _7  and  _8
REMARK    6  A    between atoms: _8  and  _9
REMARK    7  A    between atoms: _19  and  _20
REMARK    8  A    between atoms: _25  and  _27
REMARK    9  A    between atoms: _27  and  _28
REMARK   10  A    between atoms: _27  and  _30
REMARK   11  A    between atoms: _30  and  _31
REMARK   12  A    between atoms: _33  and  _35
REMARK   13  A    between atoms: _35  and  _36
REMARK   14  A    between atoms: _38  and  _40
REMARK   15  A    between atoms: _40  and  _41
REMARK   16  A    between atoms: _44  and  _46
REMARK   17  A    between atoms: _46  and  _47
REMARK   18  A    between atoms: _46  and  _49
REMARK   19  A    between atoms: _47  and  _48
REMARK   20  A    between atoms: _47  and  _52
REMARK   21  A    between atoms: _48  and  ZN_381
REMARK   22  A    between atoms: _49  and  _50
REMARK   23  A    between atoms: _52  and  _54
REMARK   24  A    between atoms: _54  and  _55
REMARK   25  A    between atoms: _54  and  _57
REMARK   26  A    between atoms: _57  and  _58
REMARK   27  A    between atoms: _61  and  _63
REMARK   28  A    between atoms: _63  and  _64
REMARK   29  A    between atoms: _66  and  _68
REMARK   30  A    between atoms: _68  and  _69
REMARK   31  A    between atoms: _68  and  _71
REMARK   32  A    between atoms: _71  and  _72
REMARK   33  A    between atoms: _72  and  _73
REMARK   34  A    between atoms: _76  and  _78
REMARK   35  A    between atoms: _78  and  _79
REMARK   36  A    between atoms: _78  and  _81
REMARK   37  A    between atoms: _81  and  _82
REMARK   38  A    between atoms: _87  and  _89
REMARK   39  A    between atoms: _89  and  _90
REMARK   40  A    between atoms: _92  and  _94
REMARK   41  A    between atoms: _94  and  _95
REMARK   42  A    between atoms: _94  and  _97
REMARK   43  A    between atoms: _97  and  _98
REMARK   44  A    between atoms: _98  and  _99
REMARK   45  A    between atoms: _99  and  _100
REMARK   46  A    between atoms: _100  and  _101
REMARK   47  A    between atoms: _105  and  _107
REMARK   48  A    between atoms: _107  and  _108
REMARK   49  A    between atoms: _107  and  _110
REMARK   50  A    between atoms: _110  and  _111
REMARK   51  A    between atoms: _111  and  _112
REMARK   52  A    between atoms: _117  and  _119
REMARK   53  A    between atoms: _119  and  _120
REMARK   54  A    between atoms: _119  and  _122
REMARK   55  A    between atoms: _122  and  _123
REMARK   56  A    between atoms: _123  and  _124
REMARK   57  A    between atoms: _127  and  _129
REMARK   58  A    between atoms: _129  and  _130
REMARK   59  A    between atoms: _129  and  _132
REMARK   60  A    between atoms: _132  and  _133
REMARK   61  A    between atoms: _133  and  _134
REMARK   62  A    between atoms: _136  and  _138
REMARK   63  A    between atoms: _138  and  _139
REMARK   64  A    between atoms: _138  and  _141
REMARK   65  A    between atoms: _141  and  _142
REMARK   66  A    between atoms: _145  and  _147
REMARK   67  A    between atoms: _147  and  _148
REMARK   68  A    between atoms: _147  and  _150
REMARK   69  A    between atoms: _150  and  _151
REMARK   70  A    between atoms: _151  and  _152
REMARK   71  A    between atoms: _155  and  _157
REMARK   72  A    between atoms: _157  and  _158
REMARK   73  A    between atoms: _157  and  _160
REMARK   74  A    between atoms: _160  and  _161
REMARK   75  A    between atoms: _161  and  _163
REMARK   76  A    between atoms: _163  and  ZN_380
REMARK   77  A    between atoms: _164  and  _166
REMARK   78  A    between atoms: _166  and  _167
REMARK   79  A    between atoms: _166  and  _169
REMARK   80  A    between atoms: _171  and  _173
REMARK   81  A    between atoms: _173  and  _174
REMARK   82  A    between atoms: _177  and  _179
REMARK   83  A    between atoms: _179  and  _180
REMARK   84  A    between atoms: _179  and  _182
REMARK   85  A    between atoms: _182  and  _183
REMARK   86  A    between atoms: _183  and  _184
REMARK   87  A    between atoms: _187  and  _189
REMARK   88  A    between atoms: _189  and  _190
REMARK   89  A    between atoms: _189  and  _192
REMARK   90  A    between atoms: _192  and  _193
REMARK   91  A    between atoms: _193  and  _194
REMARK   92  A    between atoms: _194  and  _196
REMARK   93  A    between atoms: _196  and  ZN_380
REMARK   94  A    between atoms: _197  and  _199
REMARK   95  A    between atoms: _199  and  _200
REMARK   96  A    between atoms: _199  and  _202
REMARK   97  A    between atoms: _202  and  _203
REMARK   98  A    between atoms: _206  and  _208
REMARK   99  A    between atoms: _208  and  _209
REMARK  100  A    between atoms: _208  and  _211
REMARK  101  A    between atoms: _214  and  _216
REMARK  102  A    between atoms: _216  and  _217
REMARK  103  A    between atoms: _219  and  _221
REMARK  104  A    between atoms: _221  and  _222
REMARK  105  A    between atoms: _221  and  _224
REMARK  106  A    between atoms: _224  and  _225
REMARK  107  A    between atoms: _225  and  _227
REMARK  108  A    between atoms: _227  and  ZN_380
REMARK  109  A    between atoms: _228  and  _230
REMARK  110  A    between atoms: _230  and  _231
REMARK  111  A    between atoms: _230  and  _233
REMARK  112  A    between atoms: _233  and  _234
REMARK  113  A    between atoms: _237  and  _239
REMARK  114  A    between atoms: _239  and  _240
REMARK  115  A    between atoms: _239  and  _242
REMARK  116  A    between atoms: _242  and  _243
REMARK  117  A    between atoms: _246  and  _248
REMARK  118  A    between atoms: _248  and  _249
REMARK  119  A    between atoms: _248  and  _251
REMARK  120  A    between atoms: _251  and  _252
REMARK  121  A    between atoms: _252  and  _253
REMARK  122  A    between atoms: _253  and  _254
REMARK  123  A    between atoms: _254  and  _255
REMARK  124  A    between atoms: _259  and  _261
REMARK  125  A    between atoms: _261  and  _262
REMARK  126  A    between atoms: _261  and  _264
REMARK  127  A    between atoms: _264  and  _265
REMARK  128  A    between atoms: _270  and  _272
REMARK  129  A    between atoms: _272  and  _273
REMARK  130  A    between atoms: _272  and  _275
REMARK  131  A    between atoms: _275  and  _276
REMARK  132  A    between atoms: _276  and  _277
REMARK  133  A    between atoms: _282  and  _284
REMARK  134  A    between atoms: _284  and  _285
REMARK  135  A    between atoms: _284  and  _287
REMARK  136  A    between atoms: _287  and  _288
REMARK  137  A    between atoms: _288  and  _289
REMARK  138  A    between atoms: _291  and  _293
REMARK  139  A    between atoms: _293  and  _294
REMARK  140  A    between atoms: _293  and  _296
REMARK  141  A    between atoms: _296  and  _297
REMARK  142  A    between atoms: _299  and  _301
REMARK  143  A    between atoms: _301  and  _302
REMARK  144  A    between atoms: _301  and  _304
REMARK  145  A    between atoms: _304  and  _305
REMARK  146  A    between atoms: _310  and  _312
REMARK  147  A    between atoms: _312  and  _313
REMARK  148  A    between atoms: _312  and  _315
REMARK  149  A    between atoms: _315  and  _316
REMARK  150  A    between atoms: _316  and  _317
REMARK  151  A    between atoms: _317  and  _318
REMARK  152  A    between atoms: _327  and  _329
REMARK  153  A    between atoms: _329  and  _330
REMARK  154  A    between atoms: _329  and  _332
REMARK  155  A    between atoms: _332  and  _333
REMARK  156  A    between atoms: _335  and  _337
REMARK  157  A    between atoms: _337  and  _338
REMARK  158  A    between atoms: _340  and  _342
REMARK  159  A    between atoms: _342  and  _343
REMARK  160  A    between atoms: _342  and  _345
REMARK  161  A    between atoms: _345  and  _346
REMARK  162  A    between atoms: _346  and  _347
REMARK  163  A    between atoms: _350  and  _352
REMARK  164  A    between atoms: _352  and  _353
REMARK  165  A    between atoms: _352  and  _355
REMARK  166  A    between atoms: _355  and  _356
REMARK  167  A    between atoms: _356  and  _357
REMARK  168  A    between atoms: _357  and  _358
REMARK  169  A    between atoms: _358  and  _359
REMARK  170  A    between atoms: _363  and  _365
REMARK  171  A    between atoms: _365  and  _366
REMARK  172  A    between atoms: _365  and  _368
REMARK  173  A    between atoms: _368  and  _369
REMARK  174  A    between atoms: _369  and  _370
REMARK  175  A    between atoms: _370  and  _371
REMARK                            x       y       z     vdW  Elec       q    Type
REMARK                         _______ _______ _______ _____ _____    ______ ____
ROOT
ATOM      1  O   HOH     1      30.146  29.861 -18.670  0.00  0.00    +0.000 OA
ENDROOT
TORSDOF 0
REMARK  Name = ../refined-set-2016/2pu1/2pu1_pocket.pdb
REMARK  175 active torsions:
REMARK  status: ('A' for Active; 'I' for Inactive)
REMARK    1  A    between atoms: _1  and  _3
REMARK    2  A    between atoms: _3  and  _4
REMARK    3  A    between atoms: _3  and  _6
REMARK    4  A    between atoms: _6  and  _7
REMARK    5  A    between atoms: _7  and  _8
REMARK    6  A    between atoms: _8  and  _9
REMARK    7  A    between atoms: _19  and  _20
REMARK    8  A    between atoms: _25  and  _27
REMARK    9  A    between atoms: _27  and  _28
REMARK   10  A    between atoms: _27  and  _30
REMARK   11  A    between atoms: _30  and  _31
REMARK   12  A    between atoms: _33  and  _35
REMARK   13  A    between atoms: _35  and  _36
REMARK   14  A    between atoms: _38  and  _40
REMARK   15  A    between atoms: _40  and  _41
REMARK   16  A    between atoms: _44  and  _46
REMARK   17  A    between atoms: _46  and  _47
REMARK   18  A    between atoms: _46  and  _49
REMARK   19  A    between atoms: _47  and  _48
REMARK   20  A    between atoms: _47  and  _52
REMARK   21  A    between atoms: _48  and  ZN_381
REMARK   22  A    between atoms: _49  and  _50
REMARK   23  A    between atoms: _52  and  _54
REMARK   24  A    between atoms: _54  and  _55
REMARK   25  A    between atoms: _54  and  _57
REMARK   26  A    between atoms: _57  and  _58
REMARK   27  A    between atoms: _61  and  _63
REMARK   28  A    between atoms: _63  and  _64
REMARK   29  A    between atoms: _66  and  _68
REMARK   30  A    between atoms: _68  and  _69
REMARK   31  A    between atoms: _68  and  _71
REMARK   32  A    between atoms: _71  and  _72
REMARK   33  A    between atoms: _72  and  _73
REMARK   34  A    between atoms: _76  and  _78
REMARK   35  A    between atoms: _78  and  _79
REMARK   36  A    between atoms: _78  and  _81
REMARK   37  A    between atoms: _81  and  _82
REMARK   38  A    between atoms: _87  and  _89
REMARK   39  A    between atoms: _89  and  _90
REMARK   40  A    between atoms: _92  and  _94
REMARK   41  A    between atoms: _94  and  _95
REMARK   42  A    between atoms: _94  and  _97
REMARK   43  A    between atoms: _97  and  _98
REMARK   44  A    between atoms: _98  and  _99
REMARK   45  A    between atoms: _99  and  _100
REMARK   46  A    between atoms: _100  and  _101
REMARK   47  A    between atoms: _105  and  _107
REMARK   48  A    between atoms: _107  and  _108
REMARK   49  A    between atoms: _107  and  _110
REMARK   50  A    between atoms: _110  and  _111
REMARK   51  A    between atoms: _111  and  _112
REMARK   52  A    between atoms: _117  and  _119
REMARK   53  A    between atoms: _119  and  _120
REMARK   54  A    between atoms: _119  and  _122
REMARK   55  A    between atoms: _122  and  _123
REMARK   56  A    between atoms: _123  and  _124
REMARK   57  A    between atoms: _127  and  _129
REMARK   58  A    between atoms: _129  and  _130
REMARK   59  A    between atoms: _129  and  _132
REMARK   60  A    between atoms: _132  and  _133
REMARK   61  A    between atoms: _133  and  _134
REMARK   62  A    between atoms: _136  and  _138
REMARK   63  A    between atoms: _138  and  _139
REMARK   64  A    between atoms: _138  and  _141
REMARK   65  A    between atoms: _141  and  _142
REMARK   66  A    between atoms: _145  and  _147
REMARK   67  A    between atoms: _147  and  _148
REMARK   68  A    between atoms: _147  and  _150
REMARK   69  A    between atoms: _150  and  _151
REMARK   70  A    between atoms: _151  and  _152
REMARK   71  A    between atoms: _155  and  _157
REMARK   72  A    between atoms: _157  and  _158
REMARK   73  A    between atoms: _157  and  _160
REMARK   74  A    between atoms: _160  and  _161
REMARK   75  A    between atoms: _161  and  _163
REMARK   76  A    between atoms: _163  and  ZN_380
REMARK   77  A    between atoms: _164  and  _166
REMARK   78  A    between atoms: _166  and  _167
REMARK   79  A    between atoms: _166  and  _169
REMARK   80  A    between atoms: _171  and  _173
REMARK   81  A    between atoms: _173  and  _174
REMARK   82  A    between atoms: _177  and  _179
REMARK   83  A    between atoms: _179  and  _180
REMARK   84  A    between atoms: _179  and  _182
REMARK   85  A    between atoms: _182  and  _183
REMARK   86  A    between atoms: _183  and  _184
REMARK   87  A    between atoms: _187  and  _189
REMARK   88  A    between atoms: _189  and  _190
REMARK   89  A    between atoms: _189  and  _192
REMARK   90  A    between atoms: _192  and  _193
REMARK   91  A    between atoms: _193  and  _194
REMARK   92  A    between atoms: _194  and  _196
REMARK   93  A    between atoms: _196  and  ZN_380
REMARK   94  A    between atoms: _197  and  _199
REMARK   95  A    between atoms: _199  and  _200
REMARK   96  A    between atoms: _199  and  _202
REMARK   97  A    between atoms: _202  and  _203
REMARK   98  A    between atoms: _206  and  _208
REMARK   99  A    between atoms: _208  and  _209
REMARK  100  A    between atoms: _208  and  _211
REMARK  101  A    between atoms: _214  and  _216
REMARK  102  A    between atoms: _216  and  _217
REMARK  103  A    between atoms: _219  and  _221
REMARK  104  A    between atoms: _221  and  _222
REMARK  105  A    between atoms: _221  and  _224
REMARK  106  A    between atoms: _224  and  _225
REMARK  107  A    between atoms: _225  and  _227
REMARK  108  A    between atoms: _227  and  ZN_380
REMARK  109  A    between atoms: _228  and  _230
REMARK  110  A    between atoms: _230  and  _231
REMARK  111  A    between atoms: _230  and  _233
REMARK  112  A    between atoms: _233  and  _234
REMARK  113  A    between atoms: _237  and  _239
REMARK  114  A    between atoms: _239  and  _240
REMARK  115  A    between atoms: _239  and  _242
REMARK  116  A    between atoms: _242  and  _243
REMARK  117  A    between atoms: _246  and  _248
REMARK  118  A    between atoms: _248  and  _249
REMARK  119  A    between atoms: _248  and  _251
REMARK  120  A    between atoms: _251  and  _252
REMARK  121  A    between atoms: _252  and  _253
REMARK  122  A    between atoms: _253  and  _254
REMARK  123  A    between atoms: _254  and  _255
REMARK  124  A    between atoms: _259  and  _261
REMARK  125  A    between atoms: _261  and  _262
REMARK  126  A    between atoms: _261  and  _264
REMARK  127  A    between atoms: _264  and  _265
REMARK  128  A    between atoms: _270  and  _272
REMARK  129  A    between atoms: _272  and  _273
REMARK  130  A    between atoms: _272  and  _275
REMARK  131  A    between atoms: _275  and  _276
REMARK  132  A    between atoms: _276  and  _277
REMARK  133  A    between atoms: _282  and  _284
REMARK  134  A    between atoms: _284  and  _285
REMARK  135  A    between atoms: _284  and  _287
REMARK  136  A    between atoms: _287  and  _288
REMARK  137  A    between atoms: _288  and  _289
REMARK  138  A    between atoms: _291  and  _293
REMARK  139  A    between atoms: _293  and  _294
REMARK  140  A    between atoms: _293  and  _296
REMARK  141  A    between atoms: _296  and  _297
REMARK  142  A    between atoms: _299  and  _301
REMARK  143  A    between atoms: _301  and  _302
REMARK  144  A    between atoms: _301  and  _304
REMARK  145  A    between atoms: _304  and  _305
REMARK  146  A    between atoms: _310  and  _312
REMARK  147  A    between atoms: _312  and  _313
REMARK  148  A    between atoms: _312  and  _315
REMARK  149  A    between atoms: _315  and  _316
REMARK  150  A    between atoms: _316  and  _317
REMARK  151  A    between atoms: _317  and  _318
REMARK  152  A    between atoms: _327  and  _329
REMARK  153  A    between atoms: _329  and  _330
REMARK  154  A    between atoms: _329  and  _332
REMARK  155  A    between atoms: _332  and  _333
REMARK  156  A    between atoms: _335  and  _337
REMARK  157  A    between atoms: _337  and  _338
REMARK  158  A    between atoms: _340  and  _342
REMARK  159  A    between atoms: _342  and  _343
REMARK  160  A    between atoms: _342  and  _345
REMARK  161  A    between atoms: _345  and  _346
REMARK  162  A    between atoms: _346  and  _347
REMARK  163  A    between atoms: _350  and  _352
REMARK  164  A    between atoms: _352  and  _353
REMARK  165  A    between atoms: _352  and  _355
REMARK  166  A    between atoms: _355  and  _356
REMARK  167  A    between atoms: _356  and  _357
REMARK  168  A    between atoms: _357  and  _358
REMARK  169  A    between atoms: _358  and  _359
REMARK  170  A    between atoms: _363  and  _365
REMARK  171  A    between atoms: _365  and  _366
REMARK  172  A    between atoms: _365  and  _368
REMARK  173  A    between atoms: _368  and  _369
REMARK  174  A    between atoms: _369  and  _370
REMARK  175  A    between atoms: _370  and  _371
REMARK                            x       y       z     vdW  Elec       q    Type
REMARK                         _______ _______ _______ _____ _____    ______ ____
ROOT
ATOM      1  O   HOH     1      33.226  27.141 -12.439  0.00  0.00    +0.000 OA
ENDROOT
TORSDOF 0
REMARK  Name = ../refined-set-2016/2pu1/2pu1_pocket.pdb
REMARK  175 active torsions:
REMARK  status: ('A' for Active; 'I' for Inactive)
REMARK    1  A    between atoms: _1  and  _3
REMARK    2  A    between atoms: _3  and  _4
REMARK    3  A    between atoms: _3  and  _6
REMARK    4  A    between atoms: _6  and  _7
REMARK    5  A    between atoms: _7  and  _8
REMARK    6  A    between atoms: _8  and  _9
REMARK    7  A    between atoms: _19  and  _20
REMARK    8  A    between atoms: _25  and  _27
REMARK    9  A    between atoms: _27  and  _28
REMARK   10  A    between atoms: _27  and  _30
REMARK   11  A    between atoms: _30  and  _31
REMARK   12  A    between atoms: _33  and  _35
REMARK   13  A    between atoms: _35  and  _36
REMARK   14  A    between atoms: _38  and  _40
REMARK   15  A    between atoms: _40  and  _41
REMARK   16  A    between atoms: _44  and  _46
REMARK   17  A    between atoms: _46  and  _47
REMARK   18  A    between atoms: _46  and  _49
REMARK   19  A    between atoms: _47  and  _48
REMARK   20  A    between atoms: _47  and  _52
REMARK   21  A    between atoms: _48  and  ZN_381
REMARK   22  A    between atoms: _49  and  _50
REMARK   23  A    between atoms: _52  and  _54
REMARK   24  A    between atoms: _54  and  _55
REMARK   25  A    between atoms: _54  and  _57
REMARK   26  A    between atoms: _57  and  _58
REMARK   27  A    between atoms: _61  and  _63
REMARK   28  A    between atoms: _63  and  _64
REMARK   29  A    between atoms: _66  and  _68
REMARK   30  A    between atoms: _68  and  _69
REMARK   31  A    between atoms: _68  and  _71
REMARK   32  A    between atoms: _71  and  _72
REMARK   33  A    between atoms: _72  and  _73
REMARK   34  A    between atoms: _76  and  _78
REMARK   35  A    between atoms: _78  and  _79
REMARK   36  A    between atoms: _78  and  _81
REMARK   37  A    between atoms: _81  and  _82
REMARK   38  A    between atoms: _87  and  _89
REMARK   39  A    between atoms: _89  and  _90
REMARK   40  A    between atoms: _92  and  _94
REMARK   41  A    between atoms: _94  and  _95
REMARK   42  A    between atoms: _94  and  _97
REMARK   43  A    between atoms: _97  and  _98
REMARK   44  A    between atoms: _98  and  _99
REMARK   45  A    between atoms: _99  and  _100
REMARK   46  A    between atoms: _100  and  _101
REMARK   47  A    between atoms: _105  and  _107
REMARK   48  A    between atoms: _107  and  _108
REMARK   49  A    between atoms: _107  and  _110
REMARK   50  A    between atoms: _110  and  _111
REMARK   51  A    between atoms: _111  and  _112
REMARK   52  A    between atoms: _117  and  _119
REMARK   53  A    between atoms: _119  and  _120
REMARK   54  A    between atoms: _119  and  _122
REMARK   55  A    between atoms: _122  and  _123
REMARK   56  A    between atoms: _123  and  _124
REMARK   57  A    between atoms: _127  and  _129
REMARK   58  A    between atoms: _129  and  _130
REMARK   59  A    between atoms: _129  and  _132
REMARK   60  A    between atoms: _132  and  _133
REMARK   61  A    between atoms: _133  and  _134
REMARK   62  A    between atoms: _136  and  _138
REMARK   63  A    between atoms: _138  and  _139
REMARK   64  A    between atoms: _138  and  _141
REMARK   65  A    between atoms: _141  and  _142
REMARK   66  A    between atoms: _145  and  _147
REMARK   67  A    between atoms: _147  and  _148
REMARK   68  A    between atoms: _147  and  _150
REMARK   69  A    between atoms: _150  and  _151
REMARK   70  A    between atoms: _151  and  _152
REMARK   71  A    between atoms: _155  and  _157
REMARK   72  A    between atoms: _157  and  _158
REMARK   73  A    between atoms: _157  and  _160
REMARK   74  A    between atoms: _160  and  _161
REMARK   75  A    between atoms: _161  and  _163
REMARK   76  A    between atoms: _163  and  ZN_380
REMARK   77  A    between atoms: _164  and  _166
REMARK   78  A    between atoms: _166  and  _167
REMARK   79  A    between atoms: _166  and  _169
REMARK   80  A    between atoms: _171  and  _173
REMARK   81  A    between atoms: _173  and  _174
REMARK   82  A    between atoms: _177  and  _179
REMARK   83  A    between atoms: _179  and  _180
REMARK   84  A    between atoms: _179  and  _182
REMARK   85  A    between atoms: _182  and  _183
REMARK   86  A    between atoms: _183  and  _184
REMARK   87  A    between atoms: _187  and  _189
REMARK   88  A    between atoms: _189  and  _190
REMARK   89  A    between atoms: _189  and  _192
REMARK   90  A    between atoms: _192  and  _193
REMARK   91  A    between atoms: _193  and  _194
REMARK   92  A    between atoms: _194  and  _196
REMARK   93  A    between atoms: _196  and  ZN_380
REMARK   94  A    between atoms: _197  and  _199
REMARK   95  A    between atoms: _199  and  _200
REMARK   96  A    between atoms: _199  and  _202
REMARK   97  A    between atoms: _202  and  _203
REMARK   98  A    between atoms: _206  and  _208
REMARK   99  A    between atoms: _208  and  _209
REMARK  100  A    between atoms: _208  and  _211
REMARK  101  A    between atoms: _214  and  _216
REMARK  102  A    between atoms: _216  and  _217
REMARK  103  A    between atoms: _219  and  _221
REMARK  104  A    between atoms: _221  and  _222
REMARK  105  A    between atoms: _221  and  _224
REMARK  106  A    between atoms: _224  and  _225
REMARK  107  A    between atoms: _225  and  _227
REMARK  108  A    between atoms: _227  and  ZN_380
REMARK  109  A    between atoms: _228  and  _230
REMARK  110  A    between atoms: _230  and  _231
REMARK  111  A    between atoms: _230  and  _233
REMARK  112  A    between atoms: _233  and  _234
REMARK  113  A    between atoms: _237  and  _239
REMARK  114  A    between atoms: _239  and  _240
REMARK  115  A    between atoms: _239  and  _242
REMARK  116  A    between atoms: _242  and  _243
REMARK  117  A    between atoms: _246  and  _248
REMARK  118  A    between atoms: _248  and  _249
REMARK  119  A    between atoms: _248  and  _251
REMARK  120  A    between atoms: _251  and  _252
REMARK  121  A    between atoms: _252  and  _253
REMARK  122  A    between atoms: _253  and  _254
REMARK  123  A    between atoms: _254  and  _255
REMARK  124  A    between atoms: _259  and  _261
REMARK  125  A    between atoms: _261  and  _262
REMARK  126  A    between atoms: _261  and  _264
REMARK  127  A    between atoms: _264  and  _265
REMARK  128  A    between atoms: _270  and  _272
REMARK  129  A    between atoms: _272  and  _273
REMARK  130  A    between atoms: _272  and  _275
REMARK  131  A    between atoms: _275  and  _276
REMARK  132  A    between atoms: _276  and  _277
REMARK  133  A    between atoms: _282  and  _284
REMARK  134  A    between atoms: _284  and  _285
REMARK  135  A    between atoms: _284  and  _287
REMARK  136  A    between atoms: _287  and  _288
REMARK  137  A    between atoms: _288  and  _289
REMARK  138  A    between atoms: _291  and  _293
REMARK  139  A    between atoms: _293  and  _294
REMARK  140  A    between atoms: _293  and  _296
REMARK  141  A    between atoms: _296  and  _297
REMARK  142  A    between atoms: _299  and  _301
REMARK  143  A    between atoms: _301  and  _302
REMARK  144  A    between atoms: _301  and  _304
REMARK  145  A    between atoms: _304  and  _305
REMARK  146  A    between atoms: _310  and  _312
REMARK  147  A    between atoms: _312  and  _313
REMARK  148  A    between atoms: _312  and  _315
REMARK  149  A    between atoms: _315  and  _316
REMARK  150  A    between atoms: _316  and  _317
REMARK  151  A    between atoms: _317  and  _318
REMARK  152  A    between atoms: _327  and  _329
REMARK  153  A    between atoms: _329  and  _330
REMARK  154  A    between atoms: _329  and  _332
REMARK  155  A    between atoms: _332  and  _333
REMARK  156  A    between atoms: _335  and  _337
REMARK  157  A    between atoms: _337  and  _338
REMARK  158  A    between atoms: _340  and  _342
REMARK  159  A    between atoms: _342  and  _343
REMARK  160  A    between atoms: _342  and  _345
REMARK  161  A    between atoms: _345  and  _346
REMARK  162  A    between atoms: _346  and  _347
REMARK  163  A    between atoms: _350  and  _352
REMARK  164  A    between atoms: _352  and  _353
REMARK  165  A    between atoms: _352  and  _355
REMARK  166  A    between atoms: _355  and  _356
REMARK  167  A    between atoms: _356  and  _357
REMARK  168  A    between atoms: _357  and  _358
REMARK  169  A    between atoms: _358  and  _359
REMARK  170  A    between atoms: _363  and  _365
REMARK  171  A    between atoms: _365  and  _366
REMARK  172  A    between atoms: _365  and  _368
REMARK  173  A    between atoms: _368  and  _369
REMARK  174  A    between atoms: _369  and  _370
REMARK  175  A    between atoms: _370  and  _371
REMARK                            x       y       z     vdW  Elec       q    Type
REMARK                         _______ _______ _______ _____ _____    ______ ____
ROOT
ATOM      1  O   HOH     1      24.369  26.043 -24.240  0.00  0.00    +0.000 OA
ENDROOT
TORSDOF 0
REMARK  Name = ../refined-set-2016/2pu1/2pu1_pocket.pdb
REMARK  175 active torsions:
REMARK  status: ('A' for Active; 'I' for Inactive)
REMARK    1  A    between atoms: _1  and  _3
REMARK    2  A    between atoms: _3  and  _4
REMARK    3  A    between atoms: _3  and  _6
REMARK    4  A    between atoms: _6  and  _7
REMARK    5  A    between atoms: _7  and  _8
REMARK    6  A    between atoms: _8  and  _9
REMARK    7  A    between atoms: _19  and  _20
REMARK    8  A    between atoms: _25  and  _27
REMARK    9  A    between atoms: _27  and  _28
REMARK   10  A    between atoms: _27  and  _30
REMARK   11  A    between atoms: _30  and  _31
REMARK   12  A    between atoms: _33  and  _35
REMARK   13  A    between atoms: _35  and  _36
REMARK   14  A    between atoms: _38  and  _40
REMARK   15  A    between atoms: _40  and  _41
REMARK   16  A    between atoms: _44  and  _46
REMARK   17  A    between atoms: _46  and  _47
REMARK   18  A    between atoms: _46  and  _49
REMARK   19  A    between atoms: _47  and  _48
REMARK   20  A    between atoms: _47  and  _52
REMARK   21  A    between atoms: _48  and  ZN_381
REMARK   22  A    between atoms: _49  and  _50
REMARK   23  A    between atoms: _52  and  _54
REMARK   24  A    between atoms: _54  and  _55
REMARK   25  A    between atoms: _54  and  _57
REMARK   26  A    between atoms: _57  and  _58
REMARK   27  A    between atoms: _61  and  _63
REMARK   28  A    between atoms: _63  and  _64
REMARK   29  A    between atoms: _66  and  _68
REMARK   30  A    between atoms: _68  and  _69
REMARK   31  A    between atoms: _68  and  _71
REMARK   32  A    between atoms: _71  and  _72
REMARK   33  A    between atoms: _72  and  _73
REMARK   34  A    between atoms: _76  and  _78
REMARK   35  A    between atoms: _78  and  _79
REMARK   36  A    between atoms: _78  and  _81
REMARK   37  A    between atoms: _81  and  _82
REMARK   38  A    between atoms: _87  and  _89
REMARK   39  A    between atoms: _89  and  _90
REMARK   40  A    between atoms: _92  and  _94
REMARK   41  A    between atoms: _94  and  _95
REMARK   42  A    between atoms: _94  and  _97
REMARK   43  A    between atoms: _97  and  _98
REMARK   44  A    between atoms: _98  and  _99
REMARK   45  A    between atoms: _99  and  _100
REMARK   46  A    between atoms: _100  and  _101
REMARK   47  A    between atoms: _105  and  _107
REMARK   48  A    between atoms: _107  and  _108
REMARK   49  A    between atoms: _107  and  _110
REMARK   50  A    between atoms: _110  and  _111
REMARK   51  A    between atoms: _111  and  _112
REMARK   52  A    between atoms: _117  and  _119
REMARK   53  A    between atoms: _119  and  _120
REMARK   54  A    between atoms: _119  and  _122
REMARK   55  A    between atoms: _122  and  _123
REMARK   56  A    between atoms: _123  and  _124
REMARK   57  A    between atoms: _127  and  _129
REMARK   58  A    between atoms: _129  and  _130
REMARK   59  A    between atoms: _129  and  _132
REMARK   60  A    between atoms: _132  and  _133
REMARK   61  A    between atoms: _133  and  _134
REMARK   62  A    between atoms: _136  and  _138
REMARK   63  A    between atoms: _138  and  _139
REMARK   64  A    between atoms: _138  and  _141
REMARK   65  A    between atoms: _141  and  _142
REMARK   66  A    between atoms: _145  and  _147
REMARK   67  A    between atoms: _147  and  _148
REMARK   68  A    between atoms: _147  and  _150
REMARK   69  A    between atoms: _150  and  _151
REMARK   70  A    between atoms: _151  and  _152
REMARK   71  A    between atoms: _155  and  _157
REMARK   72  A    between atoms: _157  and  _158
REMARK   73  A    between atoms: _157  and  _160
REMARK   74  A    between atoms: _160  and  _161
REMARK   75  A    between atoms: _161  and  _163
REMARK   76  A    between atoms: _163  and  ZN_380
REMARK   77  A    between atoms: _164  and  _166
REMARK   78  A    between atoms: _166  and  _167
REMARK   79  A    between atoms: _166  and  _169
REMARK   80  A    between atoms: _171  and  _173
REMARK   81  A    between atoms: _173  and  _174
REMARK   82  A    between atoms: _177  and  _179
REMARK   83  A    between atoms: _179  and  _180
REMARK   84  A    between atoms: _179  and  _182
REMARK   85  A    between atoms: _182  and  _183
REMARK   86  A    between atoms: _183  and  _184
REMARK   87  A    between atoms: _187  and  _189
REMARK   88  A    between atoms: _189  and  _190
REMARK   89  A    between atoms: _189  and  _192
REMARK   90  A    between atoms: _192  and  _193
REMARK   91  A    between atoms: _193  and  _194
REMARK   92  A    between atoms: _194  and  _196
REMARK   93  A    between atoms: _196  and  ZN_380
REMARK   94  A    between atoms: _197  and  _199
REMARK   95  A    between atoms: _199  and  _200
REMARK   96  A    between atoms: _199  and  _202
REMARK   97  A    between atoms: _202  and  _203
REMARK   98  A    between atoms: _206  and  _208
REMARK   99  A    between atoms: _208  and  _209
REMARK  100  A    between atoms: _208  and  _211
REMARK  101  A    between atoms: _214  and  _216
REMARK  102  A    between atoms: _216  and  _217
REMARK  103  A    between atoms: _219  and  _221
REMARK  104  A    between atoms: _221  and  _222
REMARK  105  A    between atoms: _221  and  _224
REMARK  106  A    between atoms: _224  and  _225
REMARK  107  A    between atoms: _225  and  _227
REMARK  108  A    between atoms: _227  and  ZN_380
REMARK  109  A    between atoms: _228  and  _230
REMARK  110  A    between atoms: _230  and  _231
REMARK  111  A    between atoms: _230  and  _233
REMARK  112  A    between atoms: _233  and  _234
REMARK  113  A    between atoms: _237  and  _239
REMARK  114  A    between atoms: _239  and  _240
REMARK  115  A    between atoms: _239  and  _242
REMARK  116  A    between atoms: _242  and  _243
REMARK  117  A    between atoms: _246  and  _248
REMARK  118  A    between atoms: _248  and  _249
REMARK  119  A    between atoms: _248  and  _251
REMARK  120  A    between atoms: _251  and  _252
REMARK  121  A    between atoms: _252  and  _253
REMARK  122  A    between atoms: _253  and  _254
REMARK  123  A    between atoms: _254  and  _255
REMARK  124  A    between atoms: _259  and  _261
REMARK  125  A    between atoms: _261  and  _262
REMARK  126  A    between atoms: _261  and  _264
REMARK  127  A    between atoms: _264  and  _265
REMARK  128  A    between atoms: _270  and  _272
REMARK  129  A    between atoms: _272  and  _273
REMARK  130  A    between atoms: _272  and  _275
REMARK  131  A    between atoms: _275  and  _276
REMARK  132  A    between atoms: _276  and  _277
REMARK  133  A    between atoms: _282  and  _284
REMARK  134  A    between atoms: _284  and  _285
REMARK  135  A    between atoms: _284  and  _287
REMARK  136  A    between atoms: _287  and  _288
REMARK  137  A    between atoms: _288  and  _289
REMARK  138  A    between atoms: _291  and  _293
REMARK  139  A    between atoms: _293  and  _294
REMARK  140  A    between atoms: _293  and  _296
REMARK  141  A    between atoms: _296  and  _297
REMARK  142  A    between atoms: _299  and  _301
REMARK  143  A    between atoms: _301  and  _302
REMARK  144  A    between atoms: _301  and  _304
REMARK  145  A    between atoms: _304  and  _305
REMARK  146  A    between atoms: _310  and  _312
REMARK  147  A    between atoms: _312  and  _313
REMARK  148  A    between atoms: _312  and  _315
REMARK  149  A    between atoms: _315  and  _316
REMARK  150  A    between atoms: _316  and  _317
REMARK  151  A    between atoms: _317  and  _318
REMARK  152  A    between atoms: _327  and  _329
REMARK  153  A    between atoms: _329  and  _330
REMARK  154  A    between atoms: _329  and  _332
REMARK  155  A    between atoms: _332  and  _333
REMARK  156  A    between atoms: _335  and  _337
REMARK  157  A    between atoms: _337  and  _338
REMARK  158  A    between atoms: _340  and  _342
REMARK  159  A    between atoms: _342  and  _343
REMARK  160  A    between atoms: _342  and  _345
REMARK  161  A    between atoms: _345  and  _346
REMARK  162  A    between atoms: _346  and  _347
REMARK  163  A    between atoms: _350  and  _352
REMARK  164  A    between atoms: _352  and  _353
REMARK  165  A    between atoms: _352  and  _355
REMARK  166  A    between atoms: _355  and  _356
REMARK  167  A    between atoms: _356  and  _357
REMARK  168  A    between atoms: _357  and  _358
REMARK  169  A    between atoms: _358  and  _359
REMARK  170  A    between atoms: _363  and  _365
REMARK  171  A    between atoms: _365  and  _366
REMARK  172  A    between atoms: _365  and  _368
REMARK  173  A    between atoms: _368  and  _369
REMARK  174  A    between atoms: _369  and  _370
REMARK  175  A    between atoms: _370  and  _371
REMARK                            x       y       z     vdW  Elec       q    Type
REMARK                         _______ _______ _______ _____ _____    ______ ____
ROOT
ATOM      1  O   HOH     1      23.019  34.948 -16.459  0.00  0.00    +0.000 OA
ENDROOT
TORSDOF 0
REMARK  Name = ../refined-set-2016/2pu1/2pu1_pocket.pdb
REMARK  175 active torsions:
REMARK  status: ('A' for Active; 'I' for Inactive)
REMARK    1  A    between atoms: _1  and  _3
REMARK    2  A    between atoms: _3  and  _4
REMARK    3  A    between atoms: _3  and  _6
REMARK    4  A    between atoms: _6  and  _7
REMARK    5  A    between atoms: _7  and  _8
REMARK    6  A    between atoms: _8  and  _9
REMARK    7  A    between atoms: _19  and  _20
REMARK    8  A    between atoms: _25  and  _27
REMARK    9  A    between atoms: _27  and  _28
REMARK   10  A    between atoms: _27  and  _30
REMARK   11  A    between atoms: _30  and  _31
REMARK   12  A    between atoms: _33  and  _35
REMARK   13  A    between atoms: _35  and  _36
REMARK   14  A    between atoms: _38  and  _40
REMARK   15  A    between atoms: _40  and  _41
REMARK   16  A    between atoms: _44  and  _46
REMARK   17  A    between atoms: _46  and  _47
REMARK   18  A    between atoms: _46  and  _49
REMARK   19  A    between atoms: _47  and  _48
REMARK   20  A    between atoms: _47  and  _52
REMARK   21  A    between atoms: _48  and  ZN_381
REMARK   22  A    between atoms: _49  and  _50
REMARK   23  A    between atoms: _52  and  _54
REMARK   24  A    between atoms: _54  and  _55
REMARK   25  A    between atoms: _54  and  _57
REMARK   26  A    between atoms: _57  and  _58
REMARK   27  A    between atoms: _61  and  _63
REMARK   28  A    between atoms: _63  and  _64
REMARK   29  A    between atoms: _66  and  _68
REMARK   30  A    between atoms: _68  and  _69
REMARK   31  A    between atoms: _68  and  _71
REMARK   32  A    between atoms: _71  and  _72
REMARK   33  A    between atoms: _72  and  _73
REMARK   34  A    between atoms: _76  and  _78
REMARK   35  A    between atoms: _78  and  _79
REMARK   36  A    between atoms: _78  and  _81
REMARK   37  A    between atoms: _81  and  _82
REMARK   38  A    between atoms: _87  and  _89
REMARK   39  A    between atoms: _89  and  _90
REMARK   40  A    between atoms: _92  and  _94
REMARK   41  A    between atoms: _94  and  _95
REMARK   42  A    between atoms: _94  and  _97
REMARK   43  A    between atoms: _97  and  _98
REMARK   44  A    between atoms: _98  and  _99
REMARK   45  A    between atoms: _99  and  _100
REMARK   46  A    between atoms: _100  and  _101
REMARK   47  A    between atoms: _105  and  _107
REMARK   48  A    between atoms: _107  and  _108
REMARK   49  A    between atoms: _107  and  _110
REMARK   50  A    between atoms: _110  and  _111
REMARK   51  A    between atoms: _111  and  _112
REMARK   52  A    between atoms: _117  and  _119
REMARK   53  A    between atoms: _119  and  _120
REMARK   54  A    between atoms: _119  and  _122
REMARK   55  A    between atoms: _122  and  _123
REMARK   56  A    between atoms: _123  and  _124
REMARK   57  A    between atoms: _127  and  _129
REMARK   58  A    between atoms: _129  and  _130
REMARK   59  A    between atoms: _129  and  _132
REMARK   60  A    between atoms: _132  and  _133
REMARK   61  A    between atoms: _133  and  _134
REMARK   62  A    between atoms: _136  and  _138
REMARK   63  A    between atoms: _138  and  _139
REMARK   64  A    between atoms: _138  and  _141
REMARK   65  A    between atoms: _141  and  _142
REMARK   66  A    between atoms: _145  and  _147
REMARK   67  A    between atoms: _147  and  _148
REMARK   68  A    between atoms: _147  and  _150
REMARK   69  A    between atoms: _150  and  _151
REMARK   70  A    between atoms: _151  and  _152
REMARK   71  A    between atoms: _155  and  _157
REMARK   72  A    between atoms: _157  and  _158
REMARK   73  A    between atoms: _157  and  _160
REMARK   74  A    between atoms: _160  and  _161
REMARK   75  A    between atoms: _161  and  _163
REMARK   76  A    between atoms: _163  and  ZN_380
REMARK   77  A    between atoms: _164  and  _166
REMARK   78  A    between atoms: _166  and  _167
REMARK   79  A    between atoms: _166  and  _169
REMARK   80  A    between atoms: _171  and  _173
REMARK   81  A    between atoms: _173  and  _174
REMARK   82  A    between atoms: _177  and  _179
REMARK   83  A    between atoms: _179  and  _180
REMARK   84  A    between atoms: _179  and  _182
REMARK   85  A    between atoms: _182  and  _183
REMARK   86  A    between atoms: _183  and  _184
REMARK   87  A    between atoms: _187  and  _189
REMARK   88  A    between atoms: _189  and  _190
REMARK   89  A    between atoms: _189  and  _192
REMARK   90  A    between atoms: _192  and  _193
REMARK   91  A    between atoms: _193  and  _194
REMARK   92  A    between atoms: _194  and  _196
REMARK   93  A    between atoms: _196  and  ZN_380
REMARK   94  A    between atoms: _197  and  _199
REMARK   95  A    between atoms: _199  and  _200
REMARK   96  A    between atoms: _199  and  _202
REMARK   97  A    between atoms: _202  and  _203
REMARK   98  A    between atoms: _206  and  _208
REMARK   99  A    between atoms: _208  and  _209
REMARK  100  A    between atoms: _208  and  _211
REMARK  101  A    between atoms: _214  and  _216
REMARK  102  A    between atoms: _216  and  _217
REMARK  103  A    between atoms: _219  and  _221
REMARK  104  A    between atoms: _221  and  _222
REMARK  105  A    between atoms: _221  and  _224
REMARK  106  A    between atoms: _224  and  _225
REMARK  107  A    between atoms: _225  and  _227
REMARK  108  A    between atoms: _227  and  ZN_380
REMARK  109  A    between atoms: _228  and  _230
REMARK  110  A    between atoms: _230  and  _231
REMARK  111  A    between atoms: _230  and  _233
REMARK  112  A    between atoms: _233  and  _234
REMARK  113  A    between atoms: _237  and  _239
REMARK  114  A    between atoms: _239  and  _240
REMARK  115  A    between atoms: _239  and  _242
REMARK  116  A    between atoms: _242  and  _243
REMARK  117  A    between atoms: _246  and  _248
REMARK  118  A    between atoms: _248  and  _249
REMARK  119  A    between atoms: _248  and  _251
REMARK  120  A    between atoms: _251  and  _252
REMARK  121  A    between atoms: _252  and  _253
REMARK  122  A    between atoms: _253  and  _254
REMARK  123  A    between atoms: _254  and  _255
REMARK  124  A    between atoms: _259  and  _261
REMARK  125  A    between atoms: _261  and  _262
REMARK  126  A    between atoms: _261  and  _264
REMARK  127  A    between atoms: _264  and  _265
REMARK  128  A    between atoms: _270  and  _272
REMARK  129  A    between atoms: _272  and  _273
REMARK  130  A    between atoms: _272  and  _275
REMARK  131  A    between atoms: _275  and  _276
REMARK  132  A    between atoms: _276  and  _277
REMARK  133  A    between atoms: _282  and  _284
REMARK  134  A    between atoms: _284  and  _285
REMARK  135  A    between atoms: _284  and  _287
REMARK  136  A    between atoms: _287  and  _288
REMARK  137  A    between atoms: _288  and  _289
REMARK  138  A    between atoms: _291  and  _293
REMARK  139  A    between atoms: _293  and  _294
REMARK  140  A    between atoms: _293  and  _296
REMARK  141  A    between atoms: _296  and  _297
REMARK  142  A    between atoms: _299  and  _301
REMARK  143  A    between atoms: _301  and  _302
REMARK  144  A    between atoms: _301  and  _304
REMARK  145  A    between atoms: _304  and  _305
REMARK  146  A    between atoms: _310  and  _312
REMARK  147  A    between atoms: _312  and  _313
REMARK  148  A    between atoms: _312  and  _315
REMARK  149  A    between atoms: _315  and  _316
REMARK  150  A    between atoms: _316  and  _317
REMARK  151  A    between atoms: _317  and  _318
REMARK  152  A    between atoms: _327  and  _329
REMARK  153  A    between atoms: _329  and  _330
REMARK  154  A    between atoms: _329  and  _332
REMARK  155  A    between atoms: _332  and  _333
REMARK  156  A    between atoms: _335  and  _337
REMARK  157  A    between atoms: _337  and  _338
REMARK  158  A    between atoms: _340  and  _342
REMARK  159  A    between atoms: _342  and  _343
REMARK  160  A    between atoms: _342  and  _345
REMARK  161  A    between atoms: _345  and  _346
REMARK  162  A    between atoms: _346  and  _347
REMARK  163  A    between atoms: _350  and  _352
REMARK  164  A    between atoms: _352  and  _353
REMARK  165  A    between atoms: _352  and  _355
REMARK  166  A    between atoms: _355  and  _356
REMARK  167  A    between atoms: _356  and  _357
REMARK  168  A    between atoms: _357  and  _358
REMARK  169  A    between atoms: _358  and  _359
REMARK  170  A    between atoms: _363  and  _365
REMARK  171  A    between atoms: _365  and  _366
REMARK  172  A    between atoms: _365  and  _368
REMARK  173  A    between atoms: _368  and  _369
REMARK  174  A    between atoms: _369  and  _370
REMARK  175  A    between atoms: _370  and  _371
REMARK                            x       y       z     vdW  Elec       q    Type
REMARK                         _______ _______ _______ _____ _____    ______ ____
ROOT
ATOM      1  O   HOH     1      29.897  30.335 -23.325  0.00  0.00    +0.000 OA
ENDROOT
TORSDOF 0
