REMARK  Name = ../refined-set-2016/1j37/1j37_pocket.pdb
REMARK  167 active torsions:
REMARK  status: ('A' for Active; 'I' for Inactive)
REMARK    1  A    between atoms: _1  and  _3
REMARK    2  A    between atoms: _3  and  _4
REMARK    3  A    between atoms: _3  and  _6
REMARK    4  A    between atoms: _6  and  _7
REMARK    5  A    between atoms: _7  and  _8
REMARK    6  A    between atoms: _11  and  _13
REMARK    7  A    between atoms: _13  and  _14
REMARK    8  A    between atoms: _13  and  _16
REMARK    9  A    between atoms: _16  and  _17
REMARK   10  A    between atoms: _22  and  _24
REMARK   11  A    between atoms: _24  and  _25
REMARK   12  A    between atoms: _24  and  _27
REMARK   13  A    between atoms: _27  and  _28
REMARK   14  A    between atoms: _38  and  _40
REMARK   15  A    between atoms: _40  and  _41
REMARK   16  A    between atoms: _40  and  _43
REMARK   17  A    between atoms: _43  and  _44
REMARK   18  A    between atoms: _44  and  _45
REMARK   19  A    between atoms: _50  and  _52
REMARK   20  A    between atoms: _52  and  _53
REMARK   21  A    between atoms: _52  and  _55
REMARK   22  A    between atoms: _55  and  _56
REMARK   23  A    between atoms: _56  and  _57
REMARK   24  A    between atoms: _62  and  _64
REMARK   25  A    between atoms: _64  and  _65
REMARK   26  A    between atoms: _64  and  _67
REMARK   27  A    between atoms: _69  and  _71
REMARK   28  A    between atoms: _71  and  _72
REMARK   29  A    between atoms: _71  and  _74
REMARK   30  A    between atoms: _74  and  _75
REMARK   31  A    between atoms: _80  and  _82
REMARK   32  A    between atoms: _82  and  _83
REMARK   33  A    between atoms: _86  and  _88
REMARK   34  A    between atoms: _88  and  _89
REMARK   35  A    between atoms: _88  and  _91
REMARK   36  A    between atoms: _91  and  _92
REMARK   37  A    between atoms: _94  and  _96
REMARK   38  A    between atoms: _96  and  _97
REMARK   39  A    between atoms: _100  and  _102
REMARK   40  A    between atoms: _102  and  _103
REMARK   41  A    between atoms: _102  and  _105
REMARK   42  A    between atoms: _105  and  _106
REMARK   43  A    between atoms: _106  and  _107
REMARK   44  A    between atoms: _107  and  _108
REMARK   45  A    between atoms: _108  and  _109
REMARK   46  A    between atoms: _113  and  _115
REMARK   47  A    between atoms: _115  and  _116
REMARK   48  A    between atoms: _115  and  _118
REMARK   49  A    between atoms: _118  and  _119
REMARK   50  A    between atoms: _119  and  _120
REMARK   51  A    between atoms: _125  and  _127
REMARK   52  A    between atoms: _127  and  _128
REMARK   53  A    between atoms: _127  and  _130
REMARK   54  A    between atoms: _130  and  _131
REMARK   55  A    between atoms: _134  and  _136
REMARK   56  A    between atoms: _136  and  _137
REMARK   57  A    between atoms: _136  and  _139
REMARK   58  A    between atoms: _139  and  _140
REMARK   59  A    between atoms: _143  and  _145
REMARK   60  A    between atoms: _145  and  _146
REMARK   61  A    between atoms: _145  and  _148
REMARK   62  A    between atoms: _148  and  _149
REMARK   63  A    between atoms: _153  and  ZN_399
REMARK   64  A    between atoms: _154  and  _156
REMARK   65  A    between atoms: _156  and  _157
REMARK   66  A    between atoms: _156  and  _159
REMARK   67  A    between atoms: _159  and  _160
REMARK   68  A    between atoms: _160  and  _161
REMARK   69  A    between atoms: _164  and  _166
REMARK   70  A    between atoms: _166  and  _167
REMARK   71  A    between atoms: _166  and  _169
REMARK   72  A    between atoms: _169  and  _170
REMARK   73  A    between atoms: _174  and  ZN_399
REMARK   74  A    between atoms: _175  and  _177
REMARK   75  A    between atoms: _177  and  _178
REMARK   76  A    between atoms: _177  and  _180
REMARK   77  A    between atoms: _180  and  _181
REMARK   78  A    between atoms: _186  and  _188
REMARK   79  A    between atoms: _188  and  _189
REMARK   80  A    between atoms: _188  and  _191
REMARK   81  A    between atoms: _191  and  _192
REMARK   82  A    between atoms: _192  and  _193
REMARK   83  A    between atoms: _193  and  _194
REMARK   84  A    between atoms: _194  and  ZN_399
REMARK   85  A    between atoms: _196  and  _198
REMARK   86  A    between atoms: _198  and  _199
REMARK   87  A    between atoms: _198  and  _201
REMARK   88  A    between atoms: _201  and  _202
REMARK   89  A    between atoms: _205  and  _207
REMARK   90  A    between atoms: _207  and  _208
REMARK   91  A    between atoms: _207  and  _210
REMARK   92  A    between atoms: _210  and  _211
REMARK   93  A    between atoms: _214  and  _216
REMARK   94  A    between atoms: _216  and  _217
REMARK   95  A    between atoms: _216  and  _219
REMARK   96  A    between atoms: _219  and  _220
REMARK   97  A    between atoms: _220  and  _221
REMARK   98  A    between atoms: _221  and  _222
REMARK   99  A    between atoms: _222  and  _223
REMARK  100  A    between atoms: _227  and  _229
REMARK  101  A    between atoms: _229  and  _230
REMARK  102  A    between atoms: _229  and  _232
REMARK  103  A    between atoms: _232  and  _233
REMARK  104  A    between atoms: _239  and  _241
REMARK  105  A    between atoms: _241  and  _242
REMARK  106  A    between atoms: _241  and  _244
REMARK  107  A    between atoms: _244  and  _245
REMARK  108  A    between atoms: _251  and  _253
REMARK  109  A    between atoms: _253  and  _254
REMARK  110  A    between atoms: _257  and  _259
REMARK  111  A    between atoms: _259  and  _260
REMARK  112  A    between atoms: _259  and  _262
REMARK  113  A    between atoms: _262  and  _263
REMARK  114  A    between atoms: _263  and  _264
REMARK  115  A    between atoms: _266  and  _268
REMARK  116  A    between atoms: _268  and  _269
REMARK  117  A    between atoms: _268  and  _271
REMARK  118  A    between atoms: _271  and  _272
REMARK  119  A    between atoms: _272  and  _273
REMARK  120  A    between atoms: _273  and  _274
REMARK  121  A    between atoms: _274  and  _275
REMARK  122  A    between atoms: _279  and  _281
REMARK  123  A    between atoms: _281  and  _282
REMARK  124  A    between atoms: _281  and  _284
REMARK  125  A    between atoms: _284  and  _285
REMARK  126  A    between atoms: _290  and  _291
REMARK  127  A    between atoms: _293  and  _295
REMARK  128  A    between atoms: _295  and  _296
REMARK  129  A    between atoms: _295  and  _298
REMARK  130  A    between atoms: _298  and  _299
REMARK  131  A    between atoms: _304  and  _306
REMARK  132  A    between atoms: _306  and  _307
REMARK  133  A    between atoms: _306  and  _309
REMARK  134  A    between atoms: _312  and  _314
REMARK  135  A    between atoms: _314  and  _315
REMARK  136  A    between atoms: _314  and  _317
REMARK  137  A    between atoms: _317  and  _318
REMARK  138  A    between atoms: _318  and  _319
REMARK  139  A    between atoms: _322  and  _324
REMARK  140  A    between atoms: _324  and  _325
REMARK  141  A    between atoms: _324  and  _327
REMARK  142  A    between atoms: _327  and  _328
REMARK  143  A    between atoms: _333  and  _334
REMARK  144  A    between atoms: _336  and  _338
REMARK  145  A    between atoms: _338  and  _339
REMARK  146  A    between atoms: _338  and  _341
REMARK  147  A    between atoms: _341  and  _342
REMARK  148  A    between atoms: _342  and  _343
REMARK  149  A    between atoms: _343  and  _344
REMARK  150  A    between atoms: _353  and  _355
REMARK  151  A    between atoms: _355  and  _356
REMARK  152  A    between atoms: _355  and  _358
REMARK  153  A    between atoms: _358  and  _359
REMARK  154  A    between atoms: _364  and  _365
REMARK  155  A    between atoms: _367  and  _369
REMARK  156  A    between atoms: _369  and  _370
REMARK  157  A    between atoms: _369  and  _372
REMARK  158  A    between atoms: _372  and  _373
REMARK  159  A    between atoms: _375  and  _377
REMARK  160  A    between atoms: _377  and  _378
REMARK  161  A    between atoms: _377  and  _380
REMARK  162  A    between atoms: _380  and  _381
REMARK  163  A    between atoms: _387  and  _389
REMARK  164  A    between atoms: _389  and  _390
REMARK  165  A    between atoms: _389  and  _392
REMARK  166  A    between atoms: _392  and  _393
REMARK  167  A    between atoms: _393  and  _394
REMARK                            x       y       z     vdW  Elec       q    Type
REMARK                         _______ _______ _______ _____ _____    ______ ____
ROOT
ATOM      1  CA  GLU A   1      23.700  -7.140  10.031  0.00  0.00    +0.134 C 
ENDROOT
BRANCH   1   2
ATOM      2  N   GLU A   1      23.735  -6.971   8.580  0.00  0.00    -0.239 NA
ATOM      3  H   GLU A   1      22.882  -7.160   8.016  0.00  0.00    +0.142 HD
ENDBRANCH   1   2
BRANCH   1   4
ATOM      4  C   GLU A   1      24.678  -8.201  10.494  0.00  0.00    +0.224 C 
ATOM      5  O   GLU A   1      25.135  -8.162  11.637  0.00  0.00    -0.287 OA
ENDBRANCH   1   4
BRANCH   1   6
ATOM      6  CB  GLU A   1      22.294  -7.499  10.513  0.00  0.00    +0.037 C 
BRANCH   6   7
ATOM      7  CG  GLU A   1      21.350  -6.321  10.541  0.00  0.00    +0.116 C 
BRANCH   7   8
ATOM      8  CD  GLU A   1      19.921  -6.691  10.929  0.00  0.00    +0.365 C 
ATOM      9  OE2 GLU A   1      19.644  -7.877  11.234  0.00  0.00    -0.246 OA
ATOM     10  OE1 GLU A   1      19.069  -5.776  10.930  0.00  0.00    -0.246 OA
ENDBRANCH   7   8
ENDBRANCH   6   7
ENDBRANCH   1   6
TORSDOF 5
REMARK  Name = ../refined-set-2016/1j37/1j37_pocket.pdb
REMARK  167 active torsions:
REMARK  status: ('A' for Active; 'I' for Inactive)
REMARK    1  A    between atoms: _1  and  _3
REMARK    2  A    between atoms: _3  and  _4
REMARK    3  A    between atoms: _3  and  _6
REMARK    4  A    between atoms: _6  and  _7
REMARK    5  A    between atoms: _7  and  _8
REMARK    6  A    between atoms: _11  and  _13
REMARK    7  A    between atoms: _13  and  _14
REMARK    8  A    between atoms: _13  and  _16
REMARK    9  A    between atoms: _16  and  _17
REMARK   10  A    between atoms: _22  and  _24
REMARK   11  A    between atoms: _24  and  _25
REMARK   12  A    between atoms: _24  and  _27
REMARK   13  A    between atoms: _27  and  _28
REMARK   14  A    between atoms: _38  and  _40
REMARK   15  A    between atoms: _40  and  _41
REMARK   16  A    between atoms: _40  and  _43
REMARK   17  A    between atoms: _43  and  _44
REMARK   18  A    between atoms: _44  and  _45
REMARK   19  A    between atoms: _50  and  _52
REMARK   20  A    between atoms: _52  and  _53
REMARK   21  A    between atoms: _52  and  _55
REMARK   22  A    between atoms: _55  and  _56
REMARK   23  A    between atoms: _56  and  _57
REMARK   24  A    between atoms: _62  and  _64
REMARK   25  A    between atoms: _64  and  _65
REMARK   26  A    between atoms: _64  and  _67
REMARK   27  A    between atoms: _69  and  _71
REMARK   28  A    between atoms: _71  and  _72
REMARK   29  A    between atoms: _71  and  _74
REMARK   30  A    between atoms: _74  and  _75
REMARK   31  A    between atoms: _80  and  _82
REMARK   32  A    between atoms: _82  and  _83
REMARK   33  A    between atoms: _86  and  _88
REMARK   34  A    between atoms: _88  and  _89
REMARK   35  A    between atoms: _88  and  _91
REMARK   36  A    between atoms: _91  and  _92
REMARK   37  A    between atoms: _94  and  _96
REMARK   38  A    between atoms: _96  and  _97
REMARK   39  A    between atoms: _100  and  _102
REMARK   40  A    between atoms: _102  and  _103
REMARK   41  A    between atoms: _102  and  _105
REMARK   42  A    between atoms: _105  and  _106
REMARK   43  A    between atoms: _106  and  _107
REMARK   44  A    between atoms: _107  and  _108
REMARK   45  A    between atoms: _108  and  _109
REMARK   46  A    between atoms: _113  and  _115
REMARK   47  A    between atoms: _115  and  _116
REMARK   48  A    between atoms: _115  and  _118
REMARK   49  A    between atoms: _118  and  _119
REMARK   50  A    between atoms: _119  and  _120
REMARK   51  A    between atoms: _125  and  _127
REMARK   52  A    between atoms: _127  and  _128
REMARK   53  A    between atoms: _127  and  _130
REMARK   54  A    between atoms: _130  and  _131
REMARK   55  A    between atoms: _134  and  _136
REMARK   56  A    between atoms: _136  and  _137
REMARK   57  A    between atoms: _136  and  _139
REMARK   58  A    between atoms: _139  and  _140
REMARK   59  A    between atoms: _143  and  _145
REMARK   60  A    between atoms: _145  and  _146
REMARK   61  A    between atoms: _145  and  _148
REMARK   62  A    between atoms: _148  and  _149
REMARK   63  A    between atoms: _153  and  ZN_399
REMARK   64  A    between atoms: _154  and  _156
REMARK   65  A    between atoms: _156  and  _157
REMARK   66  A    between atoms: _156  and  _159
REMARK   67  A    between atoms: _159  and  _160
REMARK   68  A    between atoms: _160  and  _161
REMARK   69  A    between atoms: _164  and  _166
REMARK   70  A    between atoms: _166  and  _167
REMARK   71  A    between atoms: _166  and  _169
REMARK   72  A    between atoms: _169  and  _170
REMARK   73  A    between atoms: _174  and  ZN_399
REMARK   74  A    between atoms: _175  and  _177
REMARK   75  A    between atoms: _177  and  _178
REMARK   76  A    between atoms: _177  and  _180
REMARK   77  A    between atoms: _180  and  _181
REMARK   78  A    between atoms: _186  and  _188
REMARK   79  A    between atoms: _188  and  _189
REMARK   80  A    between atoms: _188  and  _191
REMARK   81  A    between atoms: _191  and  _192
REMARK   82  A    between atoms: _192  and  _193
REMARK   83  A    between atoms: _193  and  _194
REMARK   84  A    between atoms: _194  and  ZN_399
REMARK   85  A    between atoms: _196  and  _198
REMARK   86  A    between atoms: _198  and  _199
REMARK   87  A    between atoms: _198  and  _201
REMARK   88  A    between atoms: _201  and  _202
REMARK   89  A    between atoms: _205  and  _207
REMARK   90  A    between atoms: _207  and  _208
REMARK   91  A    between atoms: _207  and  _210
REMARK   92  A    between atoms: _210  and  _211
REMARK   93  A    between atoms: _214  and  _216
REMARK   94  A    between atoms: _216  and  _217
REMARK   95  A    between atoms: _216  and  _219
REMARK   96  A    between atoms: _219  and  _220
REMARK   97  A    between atoms: _220  and  _221
REMARK   98  A    between atoms: _221  and  _222
REMARK   99  A    between atoms: _222  and  _223
REMARK  100  A    between atoms: _227  and  _229
REMARK  101  A    between atoms: _229  and  _230
REMARK  102  A    between atoms: _229  and  _232
REMARK  103  A    between atoms: _232  and  _233
REMARK  104  A    between atoms: _239  and  _241
REMARK  105  A    between atoms: _241  and  _242
REMARK  106  A    between atoms: _241  and  _244
REMARK  107  A    between atoms: _244  and  _245
REMARK  108  A    between atoms: _251  and  _253
REMARK  109  A    between atoms: _253  and  _254
REMARK  110  A    between atoms: _257  and  _259
REMARK  111  A    between atoms: _259  and  _260
REMARK  112  A    between atoms: _259  and  _262
REMARK  113  A    between atoms: _262  and  _263
REMARK  114  A    between atoms: _263  and  _264
REMARK  115  A    between atoms: _266  and  _268
REMARK  116  A    between atoms: _268  and  _269
REMARK  117  A    between atoms: _268  and  _271
REMARK  118  A    between atoms: _271  and  _272
REMARK  119  A    between atoms: _272  and  _273
REMARK  120  A    between atoms: _273  and  _274
REMARK  121  A    between atoms: _274  and  _275
REMARK  122  A    between atoms: _279  and  _281
REMARK  123  A    between atoms: _281  and  _282
REMARK  124  A    between atoms: _281  and  _284
REMARK  125  A    between atoms: _284  and  _285
REMARK  126  A    between atoms: _290  and  _291
REMARK  127  A    between atoms: _293  and  _295
REMARK  128  A    between atoms: _295  and  _296
REMARK  129  A    between atoms: _295  and  _298
REMARK  130  A    between atoms: _298  and  _299
REMARK  131  A    between atoms: _304  and  _306
REMARK  132  A    between atoms: _306  and  _307
REMARK  133  A    between atoms: _306  and  _309
REMARK  134  A    between atoms: _312  and  _314
REMARK  135  A    between atoms: _314  and  _315
REMARK  136  A    between atoms: _314  and  _317
REMARK  137  A    between atoms: _317  and  _318
REMARK  138  A    between atoms: _318  and  _319
REMARK  139  A    between atoms: _322  and  _324
REMARK  140  A    between atoms: _324  and  _325
REMARK  141  A    between atoms: _324  and  _327
REMARK  142  A    between atoms: _327  and  _328
REMARK  143  A    between atoms: _333  and  _334
REMARK  144  A    between atoms: _336  and  _338
REMARK  145  A    between atoms: _338  and  _339
REMARK  146  A    between atoms: _338  and  _341
REMARK  147  A    between atoms: _341  and  _342
REMARK  148  A    between atoms: _342  and  _343
REMARK  149  A    between atoms: _343  and  _344
REMARK  150  A    between atoms: _353  and  _355
REMARK  151  A    between atoms: _355  and  _356
REMARK  152  A    between atoms: _355  and  _358
REMARK  153  A    between atoms: _358  and  _359
REMARK  154  A    between atoms: _364  and  _365
REMARK  155  A    between atoms: _367  and  _369
REMARK  156  A    between atoms: _369  and  _370
REMARK  157  A    between atoms: _369  and  _372
REMARK  158  A    between atoms: _372  and  _373
REMARK  159  A    between atoms: _375  and  _377
REMARK  160  A    between atoms: _377  and  _378
REMARK  161  A    between atoms: _377  and  _380
REMARK  162  A    between atoms: _380  and  _381
REMARK  163  A    between atoms: _387  and  _389
REMARK  164  A    between atoms: _389  and  _390
REMARK  165  A    between atoms: _389  and  _392
REMARK  166  A    between atoms: _392  and  _393
REMARK  167  A    between atoms: _393  and  _394
REMARK                            x       y       z     vdW  Elec       q    Type
REMARK                         _______ _______ _______ _____ _____    ______ ____
ROOT
ATOM      1  CB  ASN A   1      24.559  -2.796  17.089  0.00  0.00    +0.110 C 
ENDROOT
BRANCH   1   2
ATOM      2  CG  ASN A   1      23.107  -2.520  16.844  0.00  0.00    +0.221 C 
ATOM      3  ND2 ASN A   1      22.305  -3.576  16.860  0.00  0.00    -0.329 N 
ATOM      4 HD21 ASN A   1      22.696  -4.523  17.040  0.00  0.00    +0.145 HD
ATOM      5 HD22 ASN A   1      21.285  -3.457  16.693  0.00  0.00    +0.145 HD
ATOM      6  OD1 ASN A   1      22.703  -1.375  16.637  0.00  0.00    -0.275 OA
ENDBRANCH   1   2
BRANCH   1   7
ATOM      7  CA  ASN A   1      25.372  -2.899  15.795  0.00  0.00    +0.142 C 
BRANCH   7   8
ATOM      8  N   ASN A   1      26.765  -3.159  16.133  0.00  0.00    -0.239 NA
ATOM      9  H   ASN A   1      27.425  -2.367  16.269  0.00  0.00    +0.142 HD
ENDBRANCH   7   8
BRANCH   7  10
ATOM     10  C   ASN A   1      25.274  -1.623  14.965  0.00  0.00    +0.225 C 
ATOM     11  O   ASN A   1      25.845  -0.599  15.312  0.00  0.00    -0.287 OA
ENDBRANCH   7  10
ENDBRANCH   1   7
TORSDOF 4
REMARK  Name = ../refined-set-2016/1j37/1j37_pocket.pdb
REMARK  167 active torsions:
REMARK  status: ('A' for Active; 'I' for Inactive)
REMARK    1  A    between atoms: _1  and  _3
REMARK    2  A    between atoms: _3  and  _4
REMARK    3  A    between atoms: _3  and  _6
REMARK    4  A    between atoms: _6  and  _7
REMARK    5  A    between atoms: _7  and  _8
REMARK    6  A    between atoms: _11  and  _13
REMARK    7  A    between atoms: _13  and  _14
REMARK    8  A    between atoms: _13  and  _16
REMARK    9  A    between atoms: _16  and  _17
REMARK   10  A    between atoms: _22  and  _24
REMARK   11  A    between atoms: _24  and  _25
REMARK   12  A    between atoms: _24  and  _27
REMARK   13  A    between atoms: _27  and  _28
REMARK   14  A    between atoms: _38  and  _40
REMARK   15  A    between atoms: _40  and  _41
REMARK   16  A    between atoms: _40  and  _43
REMARK   17  A    between atoms: _43  and  _44
REMARK   18  A    between atoms: _44  and  _45
REMARK   19  A    between atoms: _50  and  _52
REMARK   20  A    between atoms: _52  and  _53
REMARK   21  A    between atoms: _52  and  _55
REMARK   22  A    between atoms: _55  and  _56
REMARK   23  A    between atoms: _56  and  _57
REMARK   24  A    between atoms: _62  and  _64
REMARK   25  A    between atoms: _64  and  _65
REMARK   26  A    between atoms: _64  and  _67
REMARK   27  A    between atoms: _69  and  _71
REMARK   28  A    between atoms: _71  and  _72
REMARK   29  A    between atoms: _71  and  _74
REMARK   30  A    between atoms: _74  and  _75
REMARK   31  A    between atoms: _80  and  _82
REMARK   32  A    between atoms: _82  and  _83
REMARK   33  A    between atoms: _86  and  _88
REMARK   34  A    between atoms: _88  and  _89
REMARK   35  A    between atoms: _88  and  _91
REMARK   36  A    between atoms: _91  and  _92
REMARK   37  A    between atoms: _94  and  _96
REMARK   38  A    between atoms: _96  and  _97
REMARK   39  A    between atoms: _100  and  _102
REMARK   40  A    between atoms: _102  and  _103
REMARK   41  A    between atoms: _102  and  _105
REMARK   42  A    between atoms: _105  and  _106
REMARK   43  A    between atoms: _106  and  _107
REMARK   44  A    between atoms: _107  and  _108
REMARK   45  A    between atoms: _108  and  _109
REMARK   46  A    between atoms: _113  and  _115
REMARK   47  A    between atoms: _115  and  _116
REMARK   48  A    between atoms: _115  and  _118
REMARK   49  A    between atoms: _118  and  _119
REMARK   50  A    between atoms: _119  and  _120
REMARK   51  A    between atoms: _125  and  _127
REMARK   52  A    between atoms: _127  and  _128
REMARK   53  A    between atoms: _127  and  _130
REMARK   54  A    between atoms: _130  and  _131
REMARK   55  A    between atoms: _134  and  _136
REMARK   56  A    between atoms: _136  and  _137
REMARK   57  A    between atoms: _136  and  _139
REMARK   58  A    between atoms: _139  and  _140
REMARK   59  A    between atoms: _143  and  _145
REMARK   60  A    between atoms: _145  and  _146
REMARK   61  A    between atoms: _145  and  _148
REMARK   62  A    between atoms: _148  and  _149
REMARK   63  A    between atoms: _153  and  ZN_399
REMARK   64  A    between atoms: _154  and  _156
REMARK   65  A    between atoms: _156  and  _157
REMARK   66  A    between atoms: _156  and  _159
REMARK   67  A    between atoms: _159  and  _160
REMARK   68  A    between atoms: _160  and  _161
REMARK   69  A    between atoms: _164  and  _166
REMARK   70  A    between atoms: _166  and  _167
REMARK   71  A    between atoms: _166  and  _169
REMARK   72  A    between atoms: _169  and  _170
REMARK   73  A    between atoms: _174  and  ZN_399
REMARK   74  A    between atoms: _175  and  _177
REMARK   75  A    between atoms: _177  and  _178
REMARK   76  A    between atoms: _177  and  _180
REMARK   77  A    between atoms: _180  and  _181
REMARK   78  A    between atoms: _186  and  _188
REMARK   79  A    between atoms: _188  and  _189
REMARK   80  A    between atoms: _188  and  _191
REMARK   81  A    between atoms: _191  and  _192
REMARK   82  A    between atoms: _192  and  _193
REMARK   83  A    between atoms: _193  and  _194
REMARK   84  A    between atoms: _194  and  ZN_399
REMARK   85  A    between atoms: _196  and  _198
REMARK   86  A    between atoms: _198  and  _199
REMARK   87  A    between atoms: _198  and  _201
REMARK   88  A    between atoms: _201  and  _202
REMARK   89  A    between atoms: _205  and  _207
REMARK   90  A    between atoms: _207  and  _208
REMARK   91  A    between atoms: _207  and  _210
REMARK   92  A    between atoms: _210  and  _211
REMARK   93  A    between atoms: _214  and  _216
REMARK   94  A    between atoms: _216  and  _217
REMARK   95  A    between atoms: _216  and  _219
REMARK   96  A    between atoms: _219  and  _220
REMARK   97  A    between atoms: _220  and  _221
REMARK   98  A    between atoms: _221  and  _222
REMARK   99  A    between atoms: _222  and  _223
REMARK  100  A    between atoms: _227  and  _229
REMARK  101  A    between atoms: _229  and  _230
REMARK  102  A    between atoms: _229  and  _232
REMARK  103  A    between atoms: _232  and  _233
REMARK  104  A    between atoms: _239  and  _241
REMARK  105  A    between atoms: _241  and  _242
REMARK  106  A    between atoms: _241  and  _244
REMARK  107  A    between atoms: _244  and  _245
REMARK  108  A    between atoms: _251  and  _253
REMARK  109  A    between atoms: _253  and  _254
REMARK  110  A    between atoms: _257  and  _259
REMARK  111  A    between atoms: _259  and  _260
REMARK  112  A    between atoms: _259  and  _262
REMARK  113  A    between atoms: _262  and  _263
REMARK  114  A    between atoms: _263  and  _264
REMARK  115  A    between atoms: _266  and  _268
REMARK  116  A    between atoms: _268  and  _269
REMARK  117  A    between atoms: _268  and  _271
REMARK  118  A    between atoms: _271  and  _272
REMARK  119  A    between atoms: _272  and  _273
REMARK  120  A    between atoms: _273  and  _274
REMARK  121  A    between atoms: _274  and  _275
REMARK  122  A    between atoms: _279  and  _281
REMARK  123  A    between atoms: _281  and  _282
REMARK  124  A    between atoms: _281  and  _284
REMARK  125  A    between atoms: _284  and  _285
REMARK  126  A    between atoms: _290  and  _291
REMARK  127  A    between atoms: _293  and  _295
REMARK  128  A    between atoms: _295  and  _296
REMARK  129  A    between atoms: _295  and  _298
REMARK  130  A    between atoms: _298  and  _299
REMARK  131  A    between atoms: _304  and  _306
REMARK  132  A    between atoms: _306  and  _307
REMARK  133  A    between atoms: _306  and  _309
REMARK  134  A    between atoms: _312  and  _314
REMARK  135  A    between atoms: _314  and  _315
REMARK  136  A    between atoms: _314  and  _317
REMARK  137  A    between atoms: _317  and  _318
REMARK  138  A    between atoms: _318  and  _319
REMARK  139  A    between atoms: _322  and  _324
REMARK  140  A    between atoms: _324  and  _325
REMARK  141  A    between atoms: _324  and  _327
REMARK  142  A    between atoms: _327  and  _328
REMARK  143  A    between atoms: _333  and  _334
REMARK  144  A    between atoms: _336  and  _338
REMARK  145  A    between atoms: _338  and  _339
REMARK  146  A    between atoms: _338  and  _341
REMARK  147  A    between atoms: _341  and  _342
REMARK  148  A    between atoms: _342  and  _343
REMARK  149  A    between atoms: _343  and  _344
REMARK  150  A    between atoms: _353  and  _355
REMARK  151  A    between atoms: _355  and  _356
REMARK  152  A    between atoms: _355  and  _358
REMARK  153  A    between atoms: _358  and  _359
REMARK  154  A    between atoms: _364  and  _365
REMARK  155  A    between atoms: _367  and  _369
REMARK  156  A    between atoms: _369  and  _370
REMARK  157  A    between atoms: _369  and  _372
REMARK  158  A    between atoms: _372  and  _373
REMARK  159  A    between atoms: _375  and  _377
REMARK  160  A    between atoms: _377  and  _378
REMARK  161  A    between atoms: _377  and  _380
REMARK  162  A    between atoms: _380  and  _381
REMARK  163  A    between atoms: _387  and  _389
REMARK  164  A    between atoms: _389  and  _390
REMARK  165  A    between atoms: _389  and  _392
REMARK  166  A    between atoms: _392  and  _393
REMARK  167  A    between atoms: _393  and  _394
REMARK                            x       y       z     vdW  Elec       q    Type
REMARK                         _______ _______ _______ _____ _____    ______ ____
ROOT
ATOM      1  CG  TRP A   1      20.839   1.623  14.223  0.00  0.00    -0.002 A 
ATOM      2  CD2 TRP A   1      20.520   0.284  13.815  0.00  0.00    +0.013 A 
ATOM      3  CE3 TRP A   1      20.565  -0.966  14.453  0.00  0.00    +0.001 A 
ATOM      4  CZ3 TRP A   1      20.173  -2.106  13.735  0.00  0.00    +0.000 A 
ATOM      5  CH2 TRP A   1      19.740  -2.007  12.392  0.00  0.00    +0.001 A 
ATOM      6  CZ2 TRP A   1      19.686  -0.793  11.747  0.00  0.00    +0.017 A 
ATOM      7  CE2 TRP A   1      20.081   0.351  12.471  0.00  0.00    +0.056 A 
ATOM      8  NE1 TRP A   1      20.130   1.669  12.090  0.00  0.00    -0.352 N 
ATOM      9  HE1 TRP A   1      19.868   2.036  11.153  0.00  0.00    +0.166 HD
ATOM     10  CD1 TRP A   1      20.581   2.425  13.145  0.00  0.00    +0.068 A 
ENDROOT
BRANCH   1  11
ATOM     11  CB  TRP A   1      21.473   2.026  15.502  0.00  0.00    +0.053 C 
BRANCH  11  12
ATOM     12  CA  TRP A   1      22.985   1.971  15.378  0.00  0.00    +0.137 C 
BRANCH  12  13
ATOM     13  N   TRP A   1      23.361   0.748  14.666  0.00  0.00    -0.239 NA
ATOM     14  H   TRP A   1      23.062  -0.166  15.063  0.00  0.00    +0.142 HD
ENDBRANCH  12  13
BRANCH  12  15
ATOM     15  C   TRP A   1      23.609   1.991  16.766  0.00  0.00    +0.224 C 
ATOM     16  O   TRP A   1      23.388   2.924  17.548  0.00  0.00    -0.287 OA
ENDBRANCH  12  15
ENDBRANCH  11  12
ENDBRANCH   1  11
TORSDOF 4
REMARK  Name = ../refined-set-2016/1j37/1j37_pocket.pdb
REMARK  167 active torsions:
REMARK  status: ('A' for Active; 'I' for Inactive)
REMARK    1  A    between atoms: _1  and  _3
REMARK    2  A    between atoms: _3  and  _4
REMARK    3  A    between atoms: _3  and  _6
REMARK    4  A    between atoms: _6  and  _7
REMARK    5  A    between atoms: _7  and  _8
REMARK    6  A    between atoms: _11  and  _13
REMARK    7  A    between atoms: _13  and  _14
REMARK    8  A    between atoms: _13  and  _16
REMARK    9  A    between atoms: _16  and  _17
REMARK   10  A    between atoms: _22  and  _24
REMARK   11  A    between atoms: _24  and  _25
REMARK   12  A    between atoms: _24  and  _27
REMARK   13  A    between atoms: _27  and  _28
REMARK   14  A    between atoms: _38  and  _40
REMARK   15  A    between atoms: _40  and  _41
REMARK   16  A    between atoms: _40  and  _43
REMARK   17  A    between atoms: _43  and  _44
REMARK   18  A    between atoms: _44  and  _45
REMARK   19  A    between atoms: _50  and  _52
REMARK   20  A    between atoms: _52  and  _53
REMARK   21  A    between atoms: _52  and  _55
REMARK   22  A    between atoms: _55  and  _56
REMARK   23  A    between atoms: _56  and  _57
REMARK   24  A    between atoms: _62  and  _64
REMARK   25  A    between atoms: _64  and  _65
REMARK   26  A    between atoms: _64  and  _67
REMARK   27  A    between atoms: _69  and  _71
REMARK   28  A    between atoms: _71  and  _72
REMARK   29  A    between atoms: _71  and  _74
REMARK   30  A    between atoms: _74  and  _75
REMARK   31  A    between atoms: _80  and  _82
REMARK   32  A    between atoms: _82  and  _83
REMARK   33  A    between atoms: _86  and  _88
REMARK   34  A    between atoms: _88  and  _89
REMARK   35  A    between atoms: _88  and  _91
REMARK   36  A    between atoms: _91  and  _92
REMARK   37  A    between atoms: _94  and  _96
REMARK   38  A    between atoms: _96  and  _97
REMARK   39  A    between atoms: _100  and  _102
REMARK   40  A    between atoms: _102  and  _103
REMARK   41  A    between atoms: _102  and  _105
REMARK   42  A    between atoms: _105  and  _106
REMARK   43  A    between atoms: _106  and  _107
REMARK   44  A    between atoms: _107  and  _108
REMARK   45  A    between atoms: _108  and  _109
REMARK   46  A    between atoms: _113  and  _115
REMARK   47  A    between atoms: _115  and  _116
REMARK   48  A    between atoms: _115  and  _118
REMARK   49  A    between atoms: _118  and  _119
REMARK   50  A    between atoms: _119  and  _120
REMARK   51  A    between atoms: _125  and  _127
REMARK   52  A    between atoms: _127  and  _128
REMARK   53  A    between atoms: _127  and  _130
REMARK   54  A    between atoms: _130  and  _131
REMARK   55  A    between atoms: _134  and  _136
REMARK   56  A    between atoms: _136  and  _137
REMARK   57  A    between atoms: _136  and  _139
REMARK   58  A    between atoms: _139  and  _140
REMARK   59  A    between atoms: _143  and  _145
REMARK   60  A    between atoms: _145  and  _146
REMARK   61  A    between atoms: _145  and  _148
REMARK   62  A    between atoms: _148  and  _149
REMARK   63  A    between atoms: _153  and  ZN_399
REMARK   64  A    between atoms: _154  and  _156
REMARK   65  A    between atoms: _156  and  _157
REMARK   66  A    between atoms: _156  and  _159
REMARK   67  A    between atoms: _159  and  _160
REMARK   68  A    between atoms: _160  and  _161
REMARK   69  A    between atoms: _164  and  _166
REMARK   70  A    between atoms: _166  and  _167
REMARK   71  A    between atoms: _166  and  _169
REMARK   72  A    between atoms: _169  and  _170
REMARK   73  A    between atoms: _174  and  ZN_399
REMARK   74  A    between atoms: _175  and  _177
REMARK   75  A    between atoms: _177  and  _178
REMARK   76  A    between atoms: _177  and  _180
REMARK   77  A    between atoms: _180  and  _181
REMARK   78  A    between atoms: _186  and  _188
REMARK   79  A    between atoms: _188  and  _189
REMARK   80  A    between atoms: _188  and  _191
REMARK   81  A    between atoms: _191  and  _192
REMARK   82  A    between atoms: _192  and  _193
REMARK   83  A    between atoms: _193  and  _194
REMARK   84  A    between atoms: _194  and  ZN_399
REMARK   85  A    between atoms: _196  and  _198
REMARK   86  A    between atoms: _198  and  _199
REMARK   87  A    between atoms: _198  and  _201
REMARK   88  A    between atoms: _201  and  _202
REMARK   89  A    between atoms: _205  and  _207
REMARK   90  A    between atoms: _207  and  _208
REMARK   91  A    between atoms: _207  and  _210
REMARK   92  A    between atoms: _210  and  _211
REMARK   93  A    between atoms: _214  and  _216
REMARK   94  A    between atoms: _216  and  _217
REMARK   95  A    between atoms: _216  and  _219
REMARK   96  A    between atoms: _219  and  _220
REMARK   97  A    between atoms: _220  and  _221
REMARK   98  A    between atoms: _221  and  _222
REMARK   99  A    between atoms: _222  and  _223
REMARK  100  A    between atoms: _227  and  _229
REMARK  101  A    between atoms: _229  and  _230
REMARK  102  A    between atoms: _229  and  _232
REMARK  103  A    between atoms: _232  and  _233
REMARK  104  A    between atoms: _239  and  _241
REMARK  105  A    between atoms: _241  and  _242
REMARK  106  A    between atoms: _241  and  _244
REMARK  107  A    between atoms: _244  and  _245
REMARK  108  A    between atoms: _251  and  _253
REMARK  109  A    between atoms: _253  and  _254
REMARK  110  A    between atoms: _257  and  _259
REMARK  111  A    between atoms: _259  and  _260
REMARK  112  A    between atoms: _259  and  _262
REMARK  113  A    between atoms: _262  and  _263
REMARK  114  A    between atoms: _263  and  _264
REMARK  115  A    between atoms: _266  and  _268
REMARK  116  A    between atoms: _268  and  _269
REMARK  117  A    between atoms: _268  and  _271
REMARK  118  A    between atoms: _271  and  _272
REMARK  119  A    between atoms: _272  and  _273
REMARK  120  A    between atoms: _273  and  _274
REMARK  121  A    between atoms: _274  and  _275
REMARK  122  A    between atoms: _279  and  _281
REMARK  123  A    between atoms: _281  and  _282
REMARK  124  A    between atoms: _281  and  _284
REMARK  125  A    between atoms: _284  and  _285
REMARK  126  A    between atoms: _290  and  _291
REMARK  127  A    between atoms: _293  and  _295
REMARK  128  A    between atoms: _295  and  _296
REMARK  129  A    between atoms: _295  and  _298
REMARK  130  A    between atoms: _298  and  _299
REMARK  131  A    between atoms: _304  and  _306
REMARK  132  A    between atoms: _306  and  _307
REMARK  133  A    between atoms: _306  and  _309
REMARK  134  A    between atoms: _312  and  _314
REMARK  135  A    between atoms: _314  and  _315
REMARK  136  A    between atoms: _314  and  _317
REMARK  137  A    between atoms: _317  and  _318
REMARK  138  A    between atoms: _318  and  _319
REMARK  139  A    between atoms: _322  and  _324
REMARK  140  A    between atoms: _324  and  _325
REMARK  141  A    between atoms: _324  and  _327
REMARK  142  A    between atoms: _327  and  _328
REMARK  143  A    between atoms: _333  and  _334
REMARK  144  A    between atoms: _336  and  _338
REMARK  145  A    between atoms: _338  and  _339
REMARK  146  A    between atoms: _338  and  _341
REMARK  147  A    between atoms: _341  and  _342
REMARK  148  A    between atoms: _342  and  _343
REMARK  149  A    between atoms: _343  and  _344
REMARK  150  A    between atoms: _353  and  _355
REMARK  151  A    between atoms: _355  and  _356
REMARK  152  A    between atoms: _355  and  _358
REMARK  153  A    between atoms: _358  and  _359
REMARK  154  A    between atoms: _364  and  _365
REMARK  155  A    between atoms: _367  and  _369
REMARK  156  A    between atoms: _369  and  _370
REMARK  157  A    between atoms: _369  and  _372
REMARK  158  A    between atoms: _372  and  _373
REMARK  159  A    between atoms: _375  and  _377
REMARK  160  A    between atoms: _377  and  _378
REMARK  161  A    between atoms: _377  and  _380
REMARK  162  A    between atoms: _380  and  _381
REMARK  163  A    between atoms: _387  and  _389
REMARK  164  A    between atoms: _389  and  _390
REMARK  165  A    between atoms: _389  and  _392
REMARK  166  A    between atoms: _392  and  _393
REMARK  167  A    between atoms: _393  and  _394
REMARK                            x       y       z     vdW  Elec       q    Type
REMARK                         _______ _______ _______ _____ _____    ______ ____
ROOT
ATOM      1  C   GLN A   1      22.224  -0.771  21.421  0.00  0.00    +0.238 C 
ATOM      2  O   GLN A   1      21.815  -0.743  22.579  0.00  0.00    -0.274 OA
ATOM      3  N   GLN A   2      22.918  -1.796  20.942  0.00  0.00    -0.298 N 
ATOM      4  H   GLN A   2      23.220  -1.784  19.947  0.00  0.00    +0.150 HD
ENDROOT
BRANCH   1   5
ATOM      5  CA  GLN A   1      21.902   0.388  20.451  0.00  0.00    +0.145 C 
BRANCH   5   6
ATOM      6  N   GLN A   1      22.838   0.457  19.338  0.00  0.00    -0.238 NA
ATOM      7  H   GLN A   1      22.518   0.244  18.372  0.00  0.00    +0.142 HD
ENDBRANCH   5   6
BRANCH   5   8
ATOM      8  CB  GLN A   1      20.479   0.222  19.924  0.00  0.00    +0.036 C 
BRANCH   8   9
ATOM      9  CG  GLN A   1      20.235  -1.098  19.212  0.00  0.00    +0.087 C 
BRANCH   9  10
ATOM     10  CD  GLN A   1      19.030  -1.032  18.299  0.00  0.00    +0.219 C 
ATOM     11  NE2 GLN A   1      17.982  -1.801  18.612  0.00  0.00    -0.329 N 
ATOM     12 HE21 GLN A   1      18.024  -2.423  19.444  0.00  0.00    +0.145 HD
ATOM     13 HE22 GLN A   1      17.125  -1.777  18.023  0.00  0.00    +0.145 HD
ATOM     14  OE1 GLN A   1      19.038  -0.280  17.331  0.00  0.00    -0.275 OA
ENDBRANCH   9  10
ENDBRANCH   8   9
ENDBRANCH   5   8
ENDBRANCH   1   5
BRANCH   3  15
ATOM     15  CA  GLN A   2      23.267  -2.939  21.779  0.00  0.00    +0.137 C 
BRANCH  15  16
ATOM     16  C   GLN A   2      24.663  -3.395  21.398  0.00  0.00    +0.227 C 
ATOM     17  O   GLN A   2      25.022  -3.342  20.231  0.00  0.00    -0.286 OA
ENDBRANCH  15  16
BRANCH  15  18
ATOM     18  CB  GLN A   2      22.256  -4.080  21.601  0.00  0.00    +0.037 C 
BRANCH  18  19
ATOM     19  CG  GLN A   2      20.990  -3.920  22.464  0.00  0.00    +0.087 C 
BRANCH  19  20
ATOM     20  CD  GLN A   2      20.065  -5.151  22.433  0.00  0.00    +0.219 C 
ATOM     21  OE1 GLN A   2      19.029  -5.183  23.120  0.00  0.00    -0.275 OA
ATOM     22  NE2 GLN A   2      20.437  -6.164  21.640  0.00  0.00    -0.329 N 
ATOM     23 HE21 GLN A   2      19.851  -7.021  21.581  0.00  0.00    +0.145 HD
ATOM     24 HE22 GLN A   2      21.312  -6.094  21.083  0.00  0.00    +0.145 HD
ENDBRANCH  19  20
ENDBRANCH  18  19
ENDBRANCH  15  18
ENDBRANCH   3  15
TORSDOF 10
REMARK  Name = ../refined-set-2016/1j37/1j37_pocket.pdb
REMARK  167 active torsions:
REMARK  status: ('A' for Active; 'I' for Inactive)
REMARK    1  A    between atoms: _1  and  _3
REMARK    2  A    between atoms: _3  and  _4
REMARK    3  A    between atoms: _3  and  _6
REMARK    4  A    between atoms: _6  and  _7
REMARK    5  A    between atoms: _7  and  _8
REMARK    6  A    between atoms: _11  and  _13
REMARK    7  A    between atoms: _13  and  _14
REMARK    8  A    between atoms: _13  and  _16
REMARK    9  A    between atoms: _16  and  _17
REMARK   10  A    between atoms: _22  and  _24
REMARK   11  A    between atoms: _24  and  _25
REMARK   12  A    between atoms: _24  and  _27
REMARK   13  A    between atoms: _27  and  _28
REMARK   14  A    between atoms: _38  and  _40
REMARK   15  A    between atoms: _40  and  _41
REMARK   16  A    between atoms: _40  and  _43
REMARK   17  A    between atoms: _43  and  _44
REMARK   18  A    between atoms: _44  and  _45
REMARK   19  A    between atoms: _50  and  _52
REMARK   20  A    between atoms: _52  and  _53
REMARK   21  A    between atoms: _52  and  _55
REMARK   22  A    between atoms: _55  and  _56
REMARK   23  A    between atoms: _56  and  _57
REMARK   24  A    between atoms: _62  and  _64
REMARK   25  A    between atoms: _64  and  _65
REMARK   26  A    between atoms: _64  and  _67
REMARK   27  A    between atoms: _69  and  _71
REMARK   28  A    between atoms: _71  and  _72
REMARK   29  A    between atoms: _71  and  _74
REMARK   30  A    between atoms: _74  and  _75
REMARK   31  A    between atoms: _80  and  _82
REMARK   32  A    between atoms: _82  and  _83
REMARK   33  A    between atoms: _86  and  _88
REMARK   34  A    between atoms: _88  and  _89
REMARK   35  A    between atoms: _88  and  _91
REMARK   36  A    between atoms: _91  and  _92
REMARK   37  A    between atoms: _94  and  _96
REMARK   38  A    between atoms: _96  and  _97
REMARK   39  A    between atoms: _100  and  _102
REMARK   40  A    between atoms: _102  and  _103
REMARK   41  A    between atoms: _102  and  _105
REMARK   42  A    between atoms: _105  and  _106
REMARK   43  A    between atoms: _106  and  _107
REMARK   44  A    between atoms: _107  and  _108
REMARK   45  A    between atoms: _108  and  _109
REMARK   46  A    between atoms: _113  and  _115
REMARK   47  A    between atoms: _115  and  _116
REMARK   48  A    between atoms: _115  and  _118
REMARK   49  A    between atoms: _118  and  _119
REMARK   50  A    between atoms: _119  and  _120
REMARK   51  A    between atoms: _125  and  _127
REMARK   52  A    between atoms: _127  and  _128
REMARK   53  A    between atoms: _127  and  _130
REMARK   54  A    between atoms: _130  and  _131
REMARK   55  A    between atoms: _134  and  _136
REMARK   56  A    between atoms: _136  and  _137
REMARK   57  A    between atoms: _136  and  _139
REMARK   58  A    between atoms: _139  and  _140
REMARK   59  A    between atoms: _143  and  _145
REMARK   60  A    between atoms: _145  and  _146
REMARK   61  A    between atoms: _145  and  _148
REMARK   62  A    between atoms: _148  and  _149
REMARK   63  A    between atoms: _153  and  ZN_399
REMARK   64  A    between atoms: _154  and  _156
REMARK   65  A    between atoms: _156  and  _157
REMARK   66  A    between atoms: _156  and  _159
REMARK   67  A    between atoms: _159  and  _160
REMARK   68  A    between atoms: _160  and  _161
REMARK   69  A    between atoms: _164  and  _166
REMARK   70  A    between atoms: _166  and  _167
REMARK   71  A    between atoms: _166  and  _169
REMARK   72  A    between atoms: _169  and  _170
REMARK   73  A    between atoms: _174  and  ZN_399
REMARK   74  A    between atoms: _175  and  _177
REMARK   75  A    between atoms: _177  and  _178
REMARK   76  A    between atoms: _177  and  _180
REMARK   77  A    between atoms: _180  and  _181
REMARK   78  A    between atoms: _186  and  _188
REMARK   79  A    between atoms: _188  and  _189
REMARK   80  A    between atoms: _188  and  _191
REMARK   81  A    between atoms: _191  and  _192
REMARK   82  A    between atoms: _192  and  _193
REMARK   83  A    between atoms: _193  and  _194
REMARK   84  A    between atoms: _194  and  ZN_399
REMARK   85  A    between atoms: _196  and  _198
REMARK   86  A    between atoms: _198  and  _199
REMARK   87  A    between atoms: _198  and  _201
REMARK   88  A    between atoms: _201  and  _202
REMARK   89  A    between atoms: _205  and  _207
REMARK   90  A    between atoms: _207  and  _208
REMARK   91  A    between atoms: _207  and  _210
REMARK   92  A    between atoms: _210  and  _211
REMARK   93  A    between atoms: _214  and  _216
REMARK   94  A    between atoms: _216  and  _217
REMARK   95  A    between atoms: _216  and  _219
REMARK   96  A    between atoms: _219  and  _220
REMARK   97  A    between atoms: _220  and  _221
REMARK   98  A    between atoms: _221  and  _222
REMARK   99  A    between atoms: _222  and  _223
REMARK  100  A    between atoms: _227  and  _229
REMARK  101  A    between atoms: _229  and  _230
REMARK  102  A    between atoms: _229  and  _232
REMARK  103  A    between atoms: _232  and  _233
REMARK  104  A    between atoms: _239  and  _241
REMARK  105  A    between atoms: _241  and  _242
REMARK  106  A    between atoms: _241  and  _244
REMARK  107  A    between atoms: _244  and  _245
REMARK  108  A    between atoms: _251  and  _253
REMARK  109  A    between atoms: _253  and  _254
REMARK  110  A    between atoms: _257  and  _259
REMARK  111  A    between atoms: _259  and  _260
REMARK  112  A    between atoms: _259  and  _262
REMARK  113  A    between atoms: _262  and  _263
REMARK  114  A    between atoms: _263  and  _264
REMARK  115  A    between atoms: _266  and  _268
REMARK  116  A    between atoms: _268  and  _269
REMARK  117  A    between atoms: _268  and  _271
REMARK  118  A    between atoms: _271  and  _272
REMARK  119  A    between atoms: _272  and  _273
REMARK  120  A    between atoms: _273  and  _274
REMARK  121  A    between atoms: _274  and  _275
REMARK  122  A    between atoms: _279  and  _281
REMARK  123  A    between atoms: _281  and  _282
REMARK  124  A    between atoms: _281  and  _284
REMARK  125  A    between atoms: _284  and  _285
REMARK  126  A    between atoms: _290  and  _291
REMARK  127  A    between atoms: _293  and  _295
REMARK  128  A    between atoms: _295  and  _296
REMARK  129  A    between atoms: _295  and  _298
REMARK  130  A    between atoms: _298  and  _299
REMARK  131  A    between atoms: _304  and  _306
REMARK  132  A    between atoms: _306  and  _307
REMARK  133  A    between atoms: _306  and  _309
REMARK  134  A    between atoms: _312  and  _314
REMARK  135  A    between atoms: _314  and  _315
REMARK  136  A    between atoms: _314  and  _317
REMARK  137  A    between atoms: _317  and  _318
REMARK  138  A    between atoms: _318  and  _319
REMARK  139  A    between atoms: _322  and  _324
REMARK  140  A    between atoms: _324  and  _325
REMARK  141  A    between atoms: _324  and  _327
REMARK  142  A    between atoms: _327  and  _328
REMARK  143  A    between atoms: _333  and  _334
REMARK  144  A    between atoms: _336  and  _338
REMARK  145  A    between atoms: _338  and  _339
REMARK  146  A    between atoms: _338  and  _341
REMARK  147  A    between atoms: _341  and  _342
REMARK  148  A    between atoms: _342  and  _343
REMARK  149  A    between atoms: _343  and  _344
REMARK  150  A    between atoms: _353  and  _355
REMARK  151  A    between atoms: _355  and  _356
REMARK  152  A    between atoms: _355  and  _358
REMARK  153  A    between atoms: _358  and  _359
REMARK  154  A    between atoms: _364  and  _365
REMARK  155  A    between atoms: _367  and  _369
REMARK  156  A    between atoms: _369  and  _370
REMARK  157  A    between atoms: _369  and  _372
REMARK  158  A    between atoms: _372  and  _373
REMARK  159  A    between atoms: _375  and  _377
REMARK  160  A    between atoms: _377  and  _378
REMARK  161  A    between atoms: _377  and  _380
REMARK  162  A    between atoms: _380  and  _381
REMARK  163  A    between atoms: _387  and  _389
REMARK  164  A    between atoms: _389  and  _390
REMARK  165  A    between atoms: _389  and  _392
REMARK  166  A    between atoms: _392  and  _393
REMARK  167  A    between atoms: _393  and  _394
REMARK                            x       y       z     vdW  Elec       q    Type
REMARK                         _______ _______ _______ _____ _____    ______ ____
ROOT
ATOM      1  C   HIS A   2      10.774  -6.415  11.565  0.00  0.00    +0.241 C 
ATOM      2  N   ALA A   3      11.096  -7.513  12.233  0.00  0.00    -0.297 N 
ATOM      3  H   ALA A   3      12.085  -7.833  12.211  0.00  0.00    +0.150 HD
ATOM      4  O   HIS A   2       9.646  -5.969  11.541  0.00  0.00    -0.273 OA
ENDROOT
BRANCH   2   5
ATOM      5  CA  ALA A   3      10.131  -8.294  12.997  0.00  0.00    +0.149 C 
ATOM      6  CB  ALA A   3      10.848  -9.062  14.125  0.00  0.00    +0.031 C 
BRANCH   5   7
ATOM      7  C   ALA A   3       8.985  -7.484  13.580  0.00  0.00    +0.241 C 
ATOM      8  O   ALA A   3       9.174  -6.376  14.069  0.00  0.00    -0.273 OA
ATOM      9  N   SER A   4       7.794  -8.076  13.552  0.00  0.00    -0.295 N 
ATOM     10  H   SER A   4       7.715  -9.027  13.138  0.00  0.00    +0.150 HD
BRANCH   9  11
ATOM     11  CA  SER A   4       6.597  -7.437  14.081  0.00  0.00    +0.178 C 
BRANCH  11  12
ATOM     12  C   SER A   4       5.494  -8.468  14.316  0.00  0.00    +0.243 C 
ATOM     13  N   ALA A   5       4.535  -8.102  15.169  0.00  0.00    -0.298 N 
ATOM     14  H   ALA A   5       4.596  -7.165  15.615  0.00  0.00    +0.150 HD
ATOM     15  O   SER A   4       5.527  -9.569  13.742  0.00  0.00    -0.273 OA
BRANCH  13  16
ATOM     16  CA  ALA A   5       3.402  -8.964  15.502  0.00  0.00    +0.137 C 
ATOM     17  CB  ALA A   5       3.445  -9.323  16.993  0.00  0.00    +0.030 C 
BRANCH  16  18
ATOM     18  C   ALA A   5       2.099  -8.229  15.149  0.00  0.00    +0.227 C 
ATOM     19  O   ALA A   5       1.973  -7.028  15.406  0.00  0.00    -0.286 OA
ENDBRANCH  16  18
ENDBRANCH  13  16
ENDBRANCH  11  12
BRANCH  11  20
ATOM     20  CB  SER A   4       6.098  -6.367  13.107  0.00  0.00    +0.166 C 
BRANCH  20  21
ATOM     21  OG  SER A   4       5.830  -6.914  11.832  0.00  0.00    -0.380 OA
ATOM     22  H   SER A   4       5.510  -6.198  11.228  0.00  0.00    +0.211 HD
ENDBRANCH  20  21
ENDBRANCH  11  20
ENDBRANCH   9  11
ENDBRANCH   5   7
ENDBRANCH   2   5
BRANCH   1  23
ATOM     23  CA  HIS A   2      11.893  -5.740  10.777  0.00  0.00    +0.155 C 
BRANCH  23  26
ATOM     24  C   CYS A   1      11.962  -7.303   8.951  0.00  0.00    +0.239 C 
ATOM     25  O   CYS A   1      12.558  -8.125   9.631  0.00  0.00    -0.274 OA
ATOM     26  N   HIS A   2      11.606  -6.114   9.406  0.00  0.00    -0.297 N 
ATOM     27  H   HIS A   2      11.118  -5.444   8.778  0.00  0.00    +0.150 HD
BRANCH  24  28
ATOM     28  CA  CYS A   1      11.580  -7.625   7.539  0.00  0.00    +0.156 C 
BRANCH  28  29
ATOM     29  N   CYS A   1      11.314  -6.540   6.628  0.00  0.00    -0.237 NA
ATOM     30  H   CYS A   1      12.043  -5.846   6.365  0.00  0.00    +0.142 HD
ENDBRANCH  28  29
BRANCH  28  31
ATOM     31  CB  CYS A   1      12.573  -8.618   6.949  0.00  0.00    +0.095 C 
ATOM     32  SG  CYS A   1      11.722 -10.207   7.114  0.00  0.00    -0.080 S 
ENDBRANCH  28  31
ENDBRANCH  24  28
ENDBRANCH  23  26
BRANCH  23  33
ATOM     33  CB  HIS A   2      11.837  -4.220  10.955  0.00  0.00    +0.076 C 
BRANCH  33  34
ATOM     34  CG  HIS A   2      12.282  -3.771  12.309  0.00  0.00    +0.082 A 
ATOM     35  CD2 HIS A   2      11.574  -3.439  13.415  0.00  0.00    +0.115 A 
ATOM     36  NE2 HIS A   2      12.483  -3.195  14.418  0.00  0.00    -0.221 NA
ATOM     37  CE1 HIS A   2      13.702  -3.367  13.943  0.00  0.00    +0.199 A 
ATOM     38  ND1 HIS A   2      13.611  -3.715  12.672  0.00  0.00    -0.227 NA
ENDBRANCH  33  34
ENDBRANCH  23  33
ENDBRANCH   1  23
TORSDOF 15
REMARK  Name = ../refined-set-2016/1j37/1j37_pocket.pdb
REMARK  167 active torsions:
REMARK  status: ('A' for Active; 'I' for Inactive)
REMARK    1  A    between atoms: _1  and  _3
REMARK    2  A    between atoms: _3  and  _4
REMARK    3  A    between atoms: _3  and  _6
REMARK    4  A    between atoms: _6  and  _7
REMARK    5  A    between atoms: _7  and  _8
REMARK    6  A    between atoms: _11  and  _13
REMARK    7  A    between atoms: _13  and  _14
REMARK    8  A    between atoms: _13  and  _16
REMARK    9  A    between atoms: _16  and  _17
REMARK   10  A    between atoms: _22  and  _24
REMARK   11  A    between atoms: _24  and  _25
REMARK   12  A    between atoms: _24  and  _27
REMARK   13  A    between atoms: _27  and  _28
REMARK   14  A    between atoms: _38  and  _40
REMARK   15  A    between atoms: _40  and  _41
REMARK   16  A    between atoms: _40  and  _43
REMARK   17  A    between atoms: _43  and  _44
REMARK   18  A    between atoms: _44  and  _45
REMARK   19  A    between atoms: _50  and  _52
REMARK   20  A    between atoms: _52  and  _53
REMARK   21  A    between atoms: _52  and  _55
REMARK   22  A    between atoms: _55  and  _56
REMARK   23  A    between atoms: _56  and  _57
REMARK   24  A    between atoms: _62  and  _64
REMARK   25  A    between atoms: _64  and  _65
REMARK   26  A    between atoms: _64  and  _67
REMARK   27  A    between atoms: _69  and  _71
REMARK   28  A    between atoms: _71  and  _72
REMARK   29  A    between atoms: _71  and  _74
REMARK   30  A    between atoms: _74  and  _75
REMARK   31  A    between atoms: _80  and  _82
REMARK   32  A    between atoms: _82  and  _83
REMARK   33  A    between atoms: _86  and  _88
REMARK   34  A    between atoms: _88  and  _89
REMARK   35  A    between atoms: _88  and  _91
REMARK   36  A    between atoms: _91  and  _92
REMARK   37  A    between atoms: _94  and  _96
REMARK   38  A    between atoms: _96  and  _97
REMARK   39  A    between atoms: _100  and  _102
REMARK   40  A    between atoms: _102  and  _103
REMARK   41  A    between atoms: _102  and  _105
REMARK   42  A    between atoms: _105  and  _106
REMARK   43  A    between atoms: _106  and  _107
REMARK   44  A    between atoms: _107  and  _108
REMARK   45  A    between atoms: _108  and  _109
REMARK   46  A    between atoms: _113  and  _115
REMARK   47  A    between atoms: _115  and  _116
REMARK   48  A    between atoms: _115  and  _118
REMARK   49  A    between atoms: _118  and  _119
REMARK   50  A    between atoms: _119  and  _120
REMARK   51  A    between atoms: _125  and  _127
REMARK   52  A    between atoms: _127  and  _128
REMARK   53  A    between atoms: _127  and  _130
REMARK   54  A    between atoms: _130  and  _131
REMARK   55  A    between atoms: _134  and  _136
REMARK   56  A    between atoms: _136  and  _137
REMARK   57  A    between atoms: _136  and  _139
REMARK   58  A    between atoms: _139  and  _140
REMARK   59  A    between atoms: _143  and  _145
REMARK   60  A    between atoms: _145  and  _146
REMARK   61  A    between atoms: _145  and  _148
REMARK   62  A    between atoms: _148  and  _149
REMARK   63  A    between atoms: _153  and  ZN_399
REMARK   64  A    between atoms: _154  and  _156
REMARK   65  A    between atoms: _156  and  _157
REMARK   66  A    between atoms: _156  and  _159
REMARK   67  A    between atoms: _159  and  _160
REMARK   68  A    between atoms: _160  and  _161
REMARK   69  A    between atoms: _164  and  _166
REMARK   70  A    between atoms: _166  and  _167
REMARK   71  A    between atoms: _166  and  _169
REMARK   72  A    between atoms: _169  and  _170
REMARK   73  A    between atoms: _174  and  ZN_399
REMARK   74  A    between atoms: _175  and  _177
REMARK   75  A    between atoms: _177  and  _178
REMARK   76  A    between atoms: _177  and  _180
REMARK   77  A    between atoms: _180  and  _181
REMARK   78  A    between atoms: _186  and  _188
REMARK   79  A    between atoms: _188  and  _189
REMARK   80  A    between atoms: _188  and  _191
REMARK   81  A    between atoms: _191  and  _192
REMARK   82  A    between atoms: _192  and  _193
REMARK   83  A    between atoms: _193  and  _194
REMARK   84  A    between atoms: _194  and  ZN_399
REMARK   85  A    between atoms: _196  and  _198
REMARK   86  A    between atoms: _198  and  _199
REMARK   87  A    between atoms: _198  and  _201
REMARK   88  A    between atoms: _201  and  _202
REMARK   89  A    between atoms: _205  and  _207
REMARK   90  A    between atoms: _207  and  _208
REMARK   91  A    between atoms: _207  and  _210
REMARK   92  A    between atoms: _210  and  _211
REMARK   93  A    between atoms: _214  and  _216
REMARK   94  A    between atoms: _216  and  _217
REMARK   95  A    between atoms: _216  and  _219
REMARK   96  A    between atoms: _219  and  _220
REMARK   97  A    between atoms: _220  and  _221
REMARK   98  A    between atoms: _221  and  _222
REMARK   99  A    between atoms: _222  and  _223
REMARK  100  A    between atoms: _227  and  _229
REMARK  101  A    between atoms: _229  and  _230
REMARK  102  A    between atoms: _229  and  _232
REMARK  103  A    between atoms: _232  and  _233
REMARK  104  A    between atoms: _239  and  _241
REMARK  105  A    between atoms: _241  and  _242
REMARK  106  A    between atoms: _241  and  _244
REMARK  107  A    between atoms: _244  and  _245
REMARK  108  A    between atoms: _251  and  _253
REMARK  109  A    between atoms: _253  and  _254
REMARK  110  A    between atoms: _257  and  _259
REMARK  111  A    between atoms: _259  and  _260
REMARK  112  A    between atoms: _259  and  _262
REMARK  113  A    between atoms: _262  and  _263
REMARK  114  A    between atoms: _263  and  _264
REMARK  115  A    between atoms: _266  and  _268
REMARK  116  A    between atoms: _268  and  _269
REMARK  117  A    between atoms: _268  and  _271
REMARK  118  A    between atoms: _271  and  _272
REMARK  119  A    between atoms: _272  and  _273
REMARK  120  A    between atoms: _273  and  _274
REMARK  121  A    between atoms: _274  and  _275
REMARK  122  A    between atoms: _279  and  _281
REMARK  123  A    between atoms: _281  and  _282
REMARK  124  A    between atoms: _281  and  _284
REMARK  125  A    between atoms: _284  and  _285
REMARK  126  A    between atoms: _290  and  _291
REMARK  127  A    between atoms: _293  and  _295
REMARK  128  A    between atoms: _295  and  _296
REMARK  129  A    between atoms: _295  and  _298
REMARK  130  A    between atoms: _298  and  _299
REMARK  131  A    between atoms: _304  and  _306
REMARK  132  A    between atoms: _306  and  _307
REMARK  133  A    between atoms: _306  and  _309
REMARK  134  A    between atoms: _312  and  _314
REMARK  135  A    between atoms: _314  and  _315
REMARK  136  A    between atoms: _314  and  _317
REMARK  137  A    between atoms: _317  and  _318
REMARK  138  A    between atoms: _318  and  _319
REMARK  139  A    between atoms: _322  and  _324
REMARK  140  A    between atoms: _324  and  _325
REMARK  141  A    between atoms: _324  and  _327
REMARK  142  A    between atoms: _327  and  _328
REMARK  143  A    between atoms: _333  and  _334
REMARK  144  A    between atoms: _336  and  _338
REMARK  145  A    between atoms: _338  and  _339
REMARK  146  A    between atoms: _338  and  _341
REMARK  147  A    between atoms: _341  and  _342
REMARK  148  A    between atoms: _342  and  _343
REMARK  149  A    between atoms: _343  and  _344
REMARK  150  A    between atoms: _353  and  _355
REMARK  151  A    between atoms: _355  and  _356
REMARK  152  A    between atoms: _355  and  _358
REMARK  153  A    between atoms: _358  and  _359
REMARK  154  A    between atoms: _364  and  _365
REMARK  155  A    between atoms: _367  and  _369
REMARK  156  A    between atoms: _369  and  _370
REMARK  157  A    between atoms: _369  and  _372
REMARK  158  A    between atoms: _372  and  _373
REMARK  159  A    between atoms: _375  and  _377
REMARK  160  A    between atoms: _377  and  _378
REMARK  161  A    between atoms: _377  and  _380
REMARK  162  A    between atoms: _380  and  _381
REMARK  163  A    between atoms: _387  and  _389
REMARK  164  A    between atoms: _389  and  _390
REMARK  165  A    between atoms: _389  and  _392
REMARK  166  A    between atoms: _392  and  _393
REMARK  167  A    between atoms: _393  and  _394
REMARK                            x       y       z     vdW  Elec       q    Type
REMARK                         _______ _______ _______ _____ _____    ______ ____
ROOT
ATOM      1  C   LYS A   1       7.742 -11.616  10.905  0.00  0.00    +0.238 C 
ATOM      2  O   LYS A   1       8.098 -10.559  11.385  0.00  0.00    -0.274 OA
ATOM      3  N   GLN A   2       8.577 -12.619  10.728  0.00  0.00    -0.298 N 
ATOM      4  H   GLN A   2       8.248 -13.511  10.306  0.00  0.00    +0.150 HD
ENDROOT
BRANCH   1   5
ATOM      5  CA  LYS A   1       6.309 -11.845  10.501  0.00  0.00    +0.145 C 
BRANCH   5   6
ATOM      6  N   LYS A   1       5.562 -11.801  11.743  0.00  0.00    -0.238 NA
ATOM      7  H   LYS A   1       5.707 -11.011  12.404  0.00  0.00    +0.142 HD
ENDBRANCH   5   6
BRANCH   5   8
ATOM      8  CB  LYS A   1       5.823 -10.763   9.522  0.00  0.00    +0.026 C 
BRANCH   8   9
ATOM      9  CG  LYS A   1       6.617 -10.718   8.223  0.00  0.00    -0.000 C 
BRANCH   9  10
ATOM     10  CD  LYS A   1       5.969  -9.809   7.180  0.00  0.00    -0.024 C 
BRANCH  10  11
ATOM     11  CE  LYS A   1       5.877  -8.363   7.652  0.00  0.00    -0.086 C 
BRANCH  11  12
ATOM     12  NZ  LYS A   1       7.190  -7.663   7.629  0.00  0.00    +0.380 N 
ATOM     13  HZ1 LYS A   1       7.857  -8.159   8.254  0.00  0.00    -0.089 HD
ATOM     14  HZ2 LYS A   1       7.066  -6.685   7.960  0.00  0.00    -0.089 HD
ATOM     15  HZ3 LYS A   1       7.561  -7.657   6.658  0.00  0.00    -0.089 HD
ENDBRANCH  11  12
ENDBRANCH  10  11
ENDBRANCH   9  10
ENDBRANCH   8   9
ENDBRANCH   5   8
ENDBRANCH   1   5
BRANCH   3  16
ATOM     16  CA  GLN A   2       9.954 -12.464  11.127  0.00  0.00    +0.137 C 
BRANCH  16  17
ATOM     17  C   GLN A   2      10.881 -13.169  10.189  0.00  0.00    +0.227 C 
ATOM     18  O   GLN A   2      10.594 -14.270   9.730  0.00  0.00    -0.286 OA
ENDBRANCH  16  17
BRANCH  16  19
ATOM     19  CB  GLN A   2      10.127 -13.024  12.529  0.00  0.00    +0.037 C 
BRANCH  19  20
ATOM     20  CG  GLN A   2      11.357 -12.542  13.293  0.00  0.00    +0.087 C 
BRANCH  20  21
ATOM     21  CD  GLN A   2      11.296 -12.951  14.746  0.00  0.00    +0.219 C 
ATOM     22  OE1 GLN A   2      10.246 -12.836  15.396  0.00  0.00    -0.275 OA
ATOM     23  NE2 GLN A   2      12.421 -13.425  15.272  0.00  0.00    -0.329 N 
ATOM     24 HE21 GLN A   2      12.445 -13.718  16.269  0.00  0.00    +0.145 HD
ATOM     25 HE22 GLN A   2      13.277 -13.503  14.686  0.00  0.00    +0.145 HD
ENDBRANCH  20  21
ENDBRANCH  19  20
ENDBRANCH  16  19
ENDBRANCH   3  16
TORSDOF 12
REMARK  Name = ../refined-set-2016/1j37/1j37_pocket.pdb
REMARK  167 active torsions:
REMARK  status: ('A' for Active; 'I' for Inactive)
REMARK    1  A    between atoms: _1  and  _3
REMARK    2  A    between atoms: _3  and  _4
REMARK    3  A    between atoms: _3  and  _6
REMARK    4  A    between atoms: _6  and  _7
REMARK    5  A    between atoms: _7  and  _8
REMARK    6  A    between atoms: _11  and  _13
REMARK    7  A    between atoms: _13  and  _14
REMARK    8  A    between atoms: _13  and  _16
REMARK    9  A    between atoms: _16  and  _17
REMARK   10  A    between atoms: _22  and  _24
REMARK   11  A    between atoms: _24  and  _25
REMARK   12  A    between atoms: _24  and  _27
REMARK   13  A    between atoms: _27  and  _28
REMARK   14  A    between atoms: _38  and  _40
REMARK   15  A    between atoms: _40  and  _41
REMARK   16  A    between atoms: _40  and  _43
REMARK   17  A    between atoms: _43  and  _44
REMARK   18  A    between atoms: _44  and  _45
REMARK   19  A    between atoms: _50  and  _52
REMARK   20  A    between atoms: _52  and  _53
REMARK   21  A    between atoms: _52  and  _55
REMARK   22  A    between atoms: _55  and  _56
REMARK   23  A    between atoms: _56  and  _57
REMARK   24  A    between atoms: _62  and  _64
REMARK   25  A    between atoms: _64  and  _65
REMARK   26  A    between atoms: _64  and  _67
REMARK   27  A    between atoms: _69  and  _71
REMARK   28  A    between atoms: _71  and  _72
REMARK   29  A    between atoms: _71  and  _74
REMARK   30  A    between atoms: _74  and  _75
REMARK   31  A    between atoms: _80  and  _82
REMARK   32  A    between atoms: _82  and  _83
REMARK   33  A    between atoms: _86  and  _88
REMARK   34  A    between atoms: _88  and  _89
REMARK   35  A    between atoms: _88  and  _91
REMARK   36  A    between atoms: _91  and  _92
REMARK   37  A    between atoms: _94  and  _96
REMARK   38  A    between atoms: _96  and  _97
REMARK   39  A    between atoms: _100  and  _102
REMARK   40  A    between atoms: _102  and  _103
REMARK   41  A    between atoms: _102  and  _105
REMARK   42  A    between atoms: _105  and  _106
REMARK   43  A    between atoms: _106  and  _107
REMARK   44  A    between atoms: _107  and  _108
REMARK   45  A    between atoms: _108  and  _109
REMARK   46  A    between atoms: _113  and  _115
REMARK   47  A    between atoms: _115  and  _116
REMARK   48  A    between atoms: _115  and  _118
REMARK   49  A    between atoms: _118  and  _119
REMARK   50  A    between atoms: _119  and  _120
REMARK   51  A    between atoms: _125  and  _127
REMARK   52  A    between atoms: _127  and  _128
REMARK   53  A    between atoms: _127  and  _130
REMARK   54  A    between atoms: _130  and  _131
REMARK   55  A    between atoms: _134  and  _136
REMARK   56  A    between atoms: _136  and  _137
REMARK   57  A    between atoms: _136  and  _139
REMARK   58  A    between atoms: _139  and  _140
REMARK   59  A    between atoms: _143  and  _145
REMARK   60  A    between atoms: _145  and  _146
REMARK   61  A    between atoms: _145  and  _148
REMARK   62  A    between atoms: _148  and  _149
REMARK   63  A    between atoms: _153  and  ZN_399
REMARK   64  A    between atoms: _154  and  _156
REMARK   65  A    between atoms: _156  and  _157
REMARK   66  A    between atoms: _156  and  _159
REMARK   67  A    between atoms: _159  and  _160
REMARK   68  A    between atoms: _160  and  _161
REMARK   69  A    between atoms: _164  and  _166
REMARK   70  A    between atoms: _166  and  _167
REMARK   71  A    between atoms: _166  and  _169
REMARK   72  A    between atoms: _169  and  _170
REMARK   73  A    between atoms: _174  and  ZN_399
REMARK   74  A    between atoms: _175  and  _177
REMARK   75  A    between atoms: _177  and  _178
REMARK   76  A    between atoms: _177  and  _180
REMARK   77  A    between atoms: _180  and  _181
REMARK   78  A    between atoms: _186  and  _188
REMARK   79  A    between atoms: _188  and  _189
REMARK   80  A    between atoms: _188  and  _191
REMARK   81  A    between atoms: _191  and  _192
REMARK   82  A    between atoms: _192  and  _193
REMARK   83  A    between atoms: _193  and  _194
REMARK   84  A    between atoms: _194  and  ZN_399
REMARK   85  A    between atoms: _196  and  _198
REMARK   86  A    between atoms: _198  and  _199
REMARK   87  A    between atoms: _198  and  _201
REMARK   88  A    between atoms: _201  and  _202
REMARK   89  A    between atoms: _205  and  _207
REMARK   90  A    between atoms: _207  and  _208
REMARK   91  A    between atoms: _207  and  _210
REMARK   92  A    between atoms: _210  and  _211
REMARK   93  A    between atoms: _214  and  _216
REMARK   94  A    between atoms: _216  and  _217
REMARK   95  A    between atoms: _216  and  _219
REMARK   96  A    between atoms: _219  and  _220
REMARK   97  A    between atoms: _220  and  _221
REMARK   98  A    between atoms: _221  and  _222
REMARK   99  A    between atoms: _222  and  _223
REMARK  100  A    between atoms: _227  and  _229
REMARK  101  A    between atoms: _229  and  _230
REMARK  102  A    between atoms: _229  and  _232
REMARK  103  A    between atoms: _232  and  _233
REMARK  104  A    between atoms: _239  and  _241
REMARK  105  A    between atoms: _241  and  _242
REMARK  106  A    between atoms: _241  and  _244
REMARK  107  A    between atoms: _244  and  _245
REMARK  108  A    between atoms: _251  and  _253
REMARK  109  A    between atoms: _253  and  _254
REMARK  110  A    between atoms: _257  and  _259
REMARK  111  A    between atoms: _259  and  _260
REMARK  112  A    between atoms: _259  and  _262
REMARK  113  A    between atoms: _262  and  _263
REMARK  114  A    between atoms: _263  and  _264
REMARK  115  A    between atoms: _266  and  _268
REMARK  116  A    between atoms: _268  and  _269
REMARK  117  A    between atoms: _268  and  _271
REMARK  118  A    between atoms: _271  and  _272
REMARK  119  A    between atoms: _272  and  _273
REMARK  120  A    between atoms: _273  and  _274
REMARK  121  A    between atoms: _274  and  _275
REMARK  122  A    between atoms: _279  and  _281
REMARK  123  A    between atoms: _281  and  _282
REMARK  124  A    between atoms: _281  and  _284
REMARK  125  A    between atoms: _284  and  _285
REMARK  126  A    between atoms: _290  and  _291
REMARK  127  A    between atoms: _293  and  _295
REMARK  128  A    between atoms: _295  and  _296
REMARK  129  A    between atoms: _295  and  _298
REMARK  130  A    between atoms: _298  and  _299
REMARK  131  A    between atoms: _304  and  _306
REMARK  132  A    between atoms: _306  and  _307
REMARK  133  A    between atoms: _306  and  _309
REMARK  134  A    between atoms: _312  and  _314
REMARK  135  A    between atoms: _314  and  _315
REMARK  136  A    between atoms: _314  and  _317
REMARK  137  A    between atoms: _317  and  _318
REMARK  138  A    between atoms: _318  and  _319
REMARK  139  A    between atoms: _322  and  _324
REMARK  140  A    between atoms: _324  and  _325
REMARK  141  A    between atoms: _324  and  _327
REMARK  142  A    between atoms: _327  and  _328
REMARK  143  A    between atoms: _333  and  _334
REMARK  144  A    between atoms: _336  and  _338
REMARK  145  A    between atoms: _338  and  _339
REMARK  146  A    between atoms: _338  and  _341
REMARK  147  A    between atoms: _341  and  _342
REMARK  148  A    between atoms: _342  and  _343
REMARK  149  A    between atoms: _343  and  _344
REMARK  150  A    between atoms: _353  and  _355
REMARK  151  A    between atoms: _355  and  _356
REMARK  152  A    between atoms: _355  and  _358
REMARK  153  A    between atoms: _358  and  _359
REMARK  154  A    between atoms: _364  and  _365
REMARK  155  A    between atoms: _367  and  _369
REMARK  156  A    between atoms: _369  and  _370
REMARK  157  A    between atoms: _369  and  _372
REMARK  158  A    between atoms: _372  and  _373
REMARK  159  A    between atoms: _375  and  _377
REMARK  160  A    between atoms: _377  and  _378
REMARK  161  A    between atoms: _377  and  _380
REMARK  162  A    between atoms: _380  and  _381
REMARK  163  A    between atoms: _387  and  _389
REMARK  164  A    between atoms: _389  and  _390
REMARK  165  A    between atoms: _389  and  _392
REMARK  166  A    between atoms: _392  and  _393
REMARK  167  A    between atoms: _393  and  _394
REMARK                            x       y       z     vdW  Elec       q    Type
REMARK                         _______ _______ _______ _____ _____    ______ ____
ROOT
ATOM      1  CA  ASP A   1      19.568 -12.760  19.883  0.00  0.00    +0.144 C 
ENDROOT
BRANCH   1   2
ATOM      2  N   ASP A   1      20.278 -14.033  19.859  0.00  0.00    -0.239 NA
ATOM      3  H   ASP A   1      21.086 -14.162  19.217  0.00  0.00    +0.142 HD
ENDBRANCH   1   2
BRANCH   1   4
ATOM      4  C   ASP A   1      18.180 -12.908  19.241  0.00  0.00    +0.225 C 
ATOM      5  O   ASP A   1      17.196 -12.311  19.704  0.00  0.00    -0.287 OA
ENDBRANCH   1   4
BRANCH   1   6
ATOM      6  CB  ASP A   1      20.376 -11.676  19.171  0.00  0.00    +0.139 C 
BRANCH   6   7
ATOM      7  CG  ASP A   1      19.984 -10.272  19.619  0.00  0.00    +0.367 C 
ATOM      8  OD2 ASP A   1      20.085  -9.975  20.836  0.00  0.00    -0.246 OA
ATOM      9  OD1 ASP A   1      19.578  -9.456  18.758  0.00  0.00    -0.246 OA
ENDBRANCH   6   7
ENDBRANCH   1   6
TORSDOF 4
REMARK  Name = ../refined-set-2016/1j37/1j37_pocket.pdb
REMARK  167 active torsions:
REMARK  status: ('A' for Active; 'I' for Inactive)
REMARK    1  A    between atoms: _1  and  _3
REMARK    2  A    between atoms: _3  and  _4
REMARK    3  A    between atoms: _3  and  _6
REMARK    4  A    between atoms: _6  and  _7
REMARK    5  A    between atoms: _7  and  _8
REMARK    6  A    between atoms: _11  and  _13
REMARK    7  A    between atoms: _13  and  _14
REMARK    8  A    between atoms: _13  and  _16
REMARK    9  A    between atoms: _16  and  _17
REMARK   10  A    between atoms: _22  and  _24
REMARK   11  A    between atoms: _24  and  _25
REMARK   12  A    between atoms: _24  and  _27
REMARK   13  A    between atoms: _27  and  _28
REMARK   14  A    between atoms: _38  and  _40
REMARK   15  A    between atoms: _40  and  _41
REMARK   16  A    between atoms: _40  and  _43
REMARK   17  A    between atoms: _43  and  _44
REMARK   18  A    between atoms: _44  and  _45
REMARK   19  A    between atoms: _50  and  _52
REMARK   20  A    between atoms: _52  and  _53
REMARK   21  A    between atoms: _52  and  _55
REMARK   22  A    between atoms: _55  and  _56
REMARK   23  A    between atoms: _56  and  _57
REMARK   24  A    between atoms: _62  and  _64
REMARK   25  A    between atoms: _64  and  _65
REMARK   26  A    between atoms: _64  and  _67
REMARK   27  A    between atoms: _69  and  _71
REMARK   28  A    between atoms: _71  and  _72
REMARK   29  A    between atoms: _71  and  _74
REMARK   30  A    between atoms: _74  and  _75
REMARK   31  A    between atoms: _80  and  _82
REMARK   32  A    between atoms: _82  and  _83
REMARK   33  A    between atoms: _86  and  _88
REMARK   34  A    between atoms: _88  and  _89
REMARK   35  A    between atoms: _88  and  _91
REMARK   36  A    between atoms: _91  and  _92
REMARK   37  A    between atoms: _94  and  _96
REMARK   38  A    between atoms: _96  and  _97
REMARK   39  A    between atoms: _100  and  _102
REMARK   40  A    between atoms: _102  and  _103
REMARK   41  A    between atoms: _102  and  _105
REMARK   42  A    between atoms: _105  and  _106
REMARK   43  A    between atoms: _106  and  _107
REMARK   44  A    between atoms: _107  and  _108
REMARK   45  A    between atoms: _108  and  _109
REMARK   46  A    between atoms: _113  and  _115
REMARK   47  A    between atoms: _115  and  _116
REMARK   48  A    between atoms: _115  and  _118
REMARK   49  A    between atoms: _118  and  _119
REMARK   50  A    between atoms: _119  and  _120
REMARK   51  A    between atoms: _125  and  _127
REMARK   52  A    between atoms: _127  and  _128
REMARK   53  A    between atoms: _127  and  _130
REMARK   54  A    between atoms: _130  and  _131
REMARK   55  A    between atoms: _134  and  _136
REMARK   56  A    between atoms: _136  and  _137
REMARK   57  A    between atoms: _136  and  _139
REMARK   58  A    between atoms: _139  and  _140
REMARK   59  A    between atoms: _143  and  _145
REMARK   60  A    between atoms: _145  and  _146
REMARK   61  A    between atoms: _145  and  _148
REMARK   62  A    between atoms: _148  and  _149
REMARK   63  A    between atoms: _153  and  ZN_399
REMARK   64  A    between atoms: _154  and  _156
REMARK   65  A    between atoms: _156  and  _157
REMARK   66  A    between atoms: _156  and  _159
REMARK   67  A    between atoms: _159  and  _160
REMARK   68  A    between atoms: _160  and  _161
REMARK   69  A    between atoms: _164  and  _166
REMARK   70  A    between atoms: _166  and  _167
REMARK   71  A    between atoms: _166  and  _169
REMARK   72  A    between atoms: _169  and  _170
REMARK   73  A    between atoms: _174  and  ZN_399
REMARK   74  A    between atoms: _175  and  _177
REMARK   75  A    between atoms: _177  and  _178
REMARK   76  A    between atoms: _177  and  _180
REMARK   77  A    between atoms: _180  and  _181
REMARK   78  A    between atoms: _186  and  _188
REMARK   79  A    between atoms: _188  and  _189
REMARK   80  A    between atoms: _188  and  _191
REMARK   81  A    between atoms: _191  and  _192
REMARK   82  A    between atoms: _192  and  _193
REMARK   83  A    between atoms: _193  and  _194
REMARK   84  A    between atoms: _194  and  ZN_399
REMARK   85  A    between atoms: _196  and  _198
REMARK   86  A    between atoms: _198  and  _199
REMARK   87  A    between atoms: _198  and  _201
REMARK   88  A    between atoms: _201  and  _202
REMARK   89  A    between atoms: _205  and  _207
REMARK   90  A    between atoms: _207  and  _208
REMARK   91  A    between atoms: _207  and  _210
REMARK   92  A    between atoms: _210  and  _211
REMARK   93  A    between atoms: _214  and  _216
REMARK   94  A    between atoms: _216  and  _217
REMARK   95  A    between atoms: _216  and  _219
REMARK   96  A    between atoms: _219  and  _220
REMARK   97  A    between atoms: _220  and  _221
REMARK   98  A    between atoms: _221  and  _222
REMARK   99  A    between atoms: _222  and  _223
REMARK  100  A    between atoms: _227  and  _229
REMARK  101  A    between atoms: _229  and  _230
REMARK  102  A    between atoms: _229  and  _232
REMARK  103  A    between atoms: _232  and  _233
REMARK  104  A    between atoms: _239  and  _241
REMARK  105  A    between atoms: _241  and  _242
REMARK  106  A    between atoms: _241  and  _244
REMARK  107  A    between atoms: _244  and  _245
REMARK  108  A    between atoms: _251  and  _253
REMARK  109  A    between atoms: _253  and  _254
REMARK  110  A    between atoms: _257  and  _259
REMARK  111  A    between atoms: _259  and  _260
REMARK  112  A    between atoms: _259  and  _262
REMARK  113  A    between atoms: _262  and  _263
REMARK  114  A    between atoms: _263  and  _264
REMARK  115  A    between atoms: _266  and  _268
REMARK  116  A    between atoms: _268  and  _269
REMARK  117  A    between atoms: _268  and  _271
REMARK  118  A    between atoms: _271  and  _272
REMARK  119  A    between atoms: _272  and  _273
REMARK  120  A    between atoms: _273  and  _274
REMARK  121  A    between atoms: _274  and  _275
REMARK  122  A    between atoms: _279  and  _281
REMARK  123  A    between atoms: _281  and  _282
REMARK  124  A    between atoms: _281  and  _284
REMARK  125  A    between atoms: _284  and  _285
REMARK  126  A    between atoms: _290  and  _291
REMARK  127  A    between atoms: _293  and  _295
REMARK  128  A    between atoms: _295  and  _296
REMARK  129  A    between atoms: _295  and  _298
REMARK  130  A    between atoms: _298  and  _299
REMARK  131  A    between atoms: _304  and  _306
REMARK  132  A    between atoms: _306  and  _307
REMARK  133  A    between atoms: _306  and  _309
REMARK  134  A    between atoms: _312  and  _314
REMARK  135  A    between atoms: _314  and  _315
REMARK  136  A    between atoms: _314  and  _317
REMARK  137  A    between atoms: _317  and  _318
REMARK  138  A    between atoms: _318  and  _319
REMARK  139  A    between atoms: _322  and  _324
REMARK  140  A    between atoms: _324  and  _325
REMARK  141  A    between atoms: _324  and  _327
REMARK  142  A    between atoms: _327  and  _328
REMARK  143  A    between atoms: _333  and  _334
REMARK  144  A    between atoms: _336  and  _338
REMARK  145  A    between atoms: _338  and  _339
REMARK  146  A    between atoms: _338  and  _341
REMARK  147  A    between atoms: _341  and  _342
REMARK  148  A    between atoms: _342  and  _343
REMARK  149  A    between atoms: _343  and  _344
REMARK  150  A    between atoms: _353  and  _355
REMARK  151  A    between atoms: _355  and  _356
REMARK  152  A    between atoms: _355  and  _358
REMARK  153  A    between atoms: _358  and  _359
REMARK  154  A    between atoms: _364  and  _365
REMARK  155  A    between atoms: _367  and  _369
REMARK  156  A    between atoms: _369  and  _370
REMARK  157  A    between atoms: _369  and  _372
REMARK  158  A    between atoms: _372  and  _373
REMARK  159  A    between atoms: _375  and  _377
REMARK  160  A    between atoms: _377  and  _378
REMARK  161  A    between atoms: _377  and  _380
REMARK  162  A    between atoms: _380  and  _381
REMARK  163  A    between atoms: _387  and  _389
REMARK  164  A    between atoms: _389  and  _390
REMARK  165  A    between atoms: _389  and  _392
REMARK  166  A    between atoms: _392  and  _393
REMARK  167  A    between atoms: _393  and  _394
REMARK                            x       y       z     vdW  Elec       q    Type
REMARK                         _______ _______ _______ _____ _____    ______ ____
ROOT
ATOM      1  CA  THR A   1      13.243 -11.612  19.659  0.00  0.00    +0.160 C 
ENDROOT
BRANCH   1   2
ATOM      2  N   THR A   1      14.168 -12.302  20.542  0.00  0.00    -0.237 NA
ATOM      3  H   THR A   1      15.133 -12.496  20.206  0.00  0.00    +0.142 HD
ENDBRANCH   1   2
BRANCH   1   4
ATOM      4  C   THR A   1      11.918 -12.383  19.499  0.00  0.00    +0.227 C 
ATOM      5  O   THR A   1      10.820 -11.808  19.632  0.00  0.00    -0.287 OA
ENDBRANCH   1   4
BRANCH   1   6
ATOM      6  CB  THR A   1      13.902 -11.404  18.292  0.00  0.00    +0.134 C 
ATOM      7  CG2 THR A   1      12.995 -10.582  17.367  0.00  0.00    +0.034 C 
BRANCH   6   8
ATOM      8  OG1 THR A   1      15.149 -10.720  18.483  0.00  0.00    -0.383 OA
ATOM      9  HG1 THR A   1      15.738 -11.266  19.062  0.00  0.00    +0.210 HD
ENDBRANCH   6   8
ENDBRANCH   1   6
TORSDOF 4
REMARK  Name = ../refined-set-2016/1j37/1j37_pocket.pdb
REMARK  167 active torsions:
REMARK  status: ('A' for Active; 'I' for Inactive)
REMARK    1  A    between atoms: _1  and  _3
REMARK    2  A    between atoms: _3  and  _4
REMARK    3  A    between atoms: _3  and  _6
REMARK    4  A    between atoms: _6  and  _7
REMARK    5  A    between atoms: _7  and  _8
REMARK    6  A    between atoms: _11  and  _13
REMARK    7  A    between atoms: _13  and  _14
REMARK    8  A    between atoms: _13  and  _16
REMARK    9  A    between atoms: _16  and  _17
REMARK   10  A    between atoms: _22  and  _24
REMARK   11  A    between atoms: _24  and  _25
REMARK   12  A    between atoms: _24  and  _27
REMARK   13  A    between atoms: _27  and  _28
REMARK   14  A    between atoms: _38  and  _40
REMARK   15  A    between atoms: _40  and  _41
REMARK   16  A    between atoms: _40  and  _43
REMARK   17  A    between atoms: _43  and  _44
REMARK   18  A    between atoms: _44  and  _45
REMARK   19  A    between atoms: _50  and  _52
REMARK   20  A    between atoms: _52  and  _53
REMARK   21  A    between atoms: _52  and  _55
REMARK   22  A    between atoms: _55  and  _56
REMARK   23  A    between atoms: _56  and  _57
REMARK   24  A    between atoms: _62  and  _64
REMARK   25  A    between atoms: _64  and  _65
REMARK   26  A    between atoms: _64  and  _67
REMARK   27  A    between atoms: _69  and  _71
REMARK   28  A    between atoms: _71  and  _72
REMARK   29  A    between atoms: _71  and  _74
REMARK   30  A    between atoms: _74  and  _75
REMARK   31  A    between atoms: _80  and  _82
REMARK   32  A    between atoms: _82  and  _83
REMARK   33  A    between atoms: _86  and  _88
REMARK   34  A    between atoms: _88  and  _89
REMARK   35  A    between atoms: _88  and  _91
REMARK   36  A    between atoms: _91  and  _92
REMARK   37  A    between atoms: _94  and  _96
REMARK   38  A    between atoms: _96  and  _97
REMARK   39  A    between atoms: _100  and  _102
REMARK   40  A    between atoms: _102  and  _103
REMARK   41  A    between atoms: _102  and  _105
REMARK   42  A    between atoms: _105  and  _106
REMARK   43  A    between atoms: _106  and  _107
REMARK   44  A    between atoms: _107  and  _108
REMARK   45  A    between atoms: _108  and  _109
REMARK   46  A    between atoms: _113  and  _115
REMARK   47  A    between atoms: _115  and  _116
REMARK   48  A    between atoms: _115  and  _118
REMARK   49  A    between atoms: _118  and  _119
REMARK   50  A    between atoms: _119  and  _120
REMARK   51  A    between atoms: _125  and  _127
REMARK   52  A    between atoms: _127  and  _128
REMARK   53  A    between atoms: _127  and  _130
REMARK   54  A    between atoms: _130  and  _131
REMARK   55  A    between atoms: _134  and  _136
REMARK   56  A    between atoms: _136  and  _137
REMARK   57  A    between atoms: _136  and  _139
REMARK   58  A    between atoms: _139  and  _140
REMARK   59  A    between atoms: _143  and  _145
REMARK   60  A    between atoms: _145  and  _146
REMARK   61  A    between atoms: _145  and  _148
REMARK   62  A    between atoms: _148  and  _149
REMARK   63  A    between atoms: _153  and  ZN_399
REMARK   64  A    between atoms: _154  and  _156
REMARK   65  A    between atoms: _156  and  _157
REMARK   66  A    between atoms: _156  and  _159
REMARK   67  A    between atoms: _159  and  _160
REMARK   68  A    between atoms: _160  and  _161
REMARK   69  A    between atoms: _164  and  _166
REMARK   70  A    between atoms: _166  and  _167
REMARK   71  A    between atoms: _166  and  _169
REMARK   72  A    between atoms: _169  and  _170
REMARK   73  A    between atoms: _174  and  ZN_399
REMARK   74  A    between atoms: _175  and  _177
REMARK   75  A    between atoms: _177  and  _178
REMARK   76  A    between atoms: _177  and  _180
REMARK   77  A    between atoms: _180  and  _181
REMARK   78  A    between atoms: _186  and  _188
REMARK   79  A    between atoms: _188  and  _189
REMARK   80  A    between atoms: _188  and  _191
REMARK   81  A    between atoms: _191  and  _192
REMARK   82  A    between atoms: _192  and  _193
REMARK   83  A    between atoms: _193  and  _194
REMARK   84  A    between atoms: _194  and  ZN_399
REMARK   85  A    between atoms: _196  and  _198
REMARK   86  A    between atoms: _198  and  _199
REMARK   87  A    between atoms: _198  and  _201
REMARK   88  A    between atoms: _201  and  _202
REMARK   89  A    between atoms: _205  and  _207
REMARK   90  A    between atoms: _207  and  _208
REMARK   91  A    between atoms: _207  and  _210
REMARK   92  A    between atoms: _210  and  _211
REMARK   93  A    between atoms: _214  and  _216
REMARK   94  A    between atoms: _216  and  _217
REMARK   95  A    between atoms: _216  and  _219
REMARK   96  A    between atoms: _219  and  _220
REMARK   97  A    between atoms: _220  and  _221
REMARK   98  A    between atoms: _221  and  _222
REMARK   99  A    between atoms: _222  and  _223
REMARK  100  A    between atoms: _227  and  _229
REMARK  101  A    between atoms: _229  and  _230
REMARK  102  A    between atoms: _229  and  _232
REMARK  103  A    between atoms: _232  and  _233
REMARK  104  A    between atoms: _239  and  _241
REMARK  105  A    between atoms: _241  and  _242
REMARK  106  A    between atoms: _241  and  _244
REMARK  107  A    between atoms: _244  and  _245
REMARK  108  A    between atoms: _251  and  _253
REMARK  109  A    between atoms: _253  and  _254
REMARK  110  A    between atoms: _257  and  _259
REMARK  111  A    between atoms: _259  and  _260
REMARK  112  A    between atoms: _259  and  _262
REMARK  113  A    between atoms: _262  and  _263
REMARK  114  A    between atoms: _263  and  _264
REMARK  115  A    between atoms: _266  and  _268
REMARK  116  A    between atoms: _268  and  _269
REMARK  117  A    between atoms: _268  and  _271
REMARK  118  A    between atoms: _271  and  _272
REMARK  119  A    between atoms: _272  and  _273
REMARK  120  A    between atoms: _273  and  _274
REMARK  121  A    between atoms: _274  and  _275
REMARK  122  A    between atoms: _279  and  _281
REMARK  123  A    between atoms: _281  and  _282
REMARK  124  A    between atoms: _281  and  _284
REMARK  125  A    between atoms: _284  and  _285
REMARK  126  A    between atoms: _290  and  _291
REMARK  127  A    between atoms: _293  and  _295
REMARK  128  A    between atoms: _295  and  _296
REMARK  129  A    between atoms: _295  and  _298
REMARK  130  A    between atoms: _298  and  _299
REMARK  131  A    between atoms: _304  and  _306
REMARK  132  A    between atoms: _306  and  _307
REMARK  133  A    between atoms: _306  and  _309
REMARK  134  A    between atoms: _312  and  _314
REMARK  135  A    between atoms: _314  and  _315
REMARK  136  A    between atoms: _314  and  _317
REMARK  137  A    between atoms: _317  and  _318
REMARK  138  A    between atoms: _318  and  _319
REMARK  139  A    between atoms: _322  and  _324
REMARK  140  A    between atoms: _324  and  _325
REMARK  141  A    between atoms: _324  and  _327
REMARK  142  A    between atoms: _327  and  _328
REMARK  143  A    between atoms: _333  and  _334
REMARK  144  A    between atoms: _336  and  _338
REMARK  145  A    between atoms: _338  and  _339
REMARK  146  A    between atoms: _338  and  _341
REMARK  147  A    between atoms: _341  and  _342
REMARK  148  A    between atoms: _342  and  _343
REMARK  149  A    between atoms: _343  and  _344
REMARK  150  A    between atoms: _353  and  _355
REMARK  151  A    between atoms: _355  and  _356
REMARK  152  A    between atoms: _355  and  _358
REMARK  153  A    between atoms: _358  and  _359
REMARK  154  A    between atoms: _364  and  _365
REMARK  155  A    between atoms: _367  and  _369
REMARK  156  A    between atoms: _369  and  _370
REMARK  157  A    between atoms: _369  and  _372
REMARK  158  A    between atoms: _372  and  _373
REMARK  159  A    between atoms: _375  and  _377
REMARK  160  A    between atoms: _377  and  _378
REMARK  161  A    between atoms: _377  and  _380
REMARK  162  A    between atoms: _380  and  _381
REMARK  163  A    between atoms: _387  and  _389
REMARK  164  A    between atoms: _389  and  _390
REMARK  165  A    between atoms: _389  and  _392
REMARK  166  A    between atoms: _392  and  _393
REMARK  167  A    between atoms: _393  and  _394
REMARK                            x       y       z     vdW  Elec       q    Type
REMARK                         _______ _______ _______ _____ _____    ______ ____
ROOT
ATOM      1 ZN   UNK A   2       8.010  -4.795  20.113  0.00  0.00    +0.000 Zn
ENDROOT
BRANCH   1   5
ATOM      2  C   UNK A   1      10.311  -8.081  21.750  0.00  0.00    +0.000 A 
ATOM      3  N   UNK A   1      10.525  -7.235  22.816  0.00  0.00    +0.000 NA
ATOM      4  C   UNK A   1       9.954  -6.068  22.573  0.00  0.00    +0.000 A 
ATOM      5  N   UNK A   1       9.378  -6.125  21.386  0.00  0.00    +0.000 N 
ATOM      6  C   UNK A   1       9.590  -7.370  20.847  0.00  0.00    +0.000 A 
BRANCH   2   7
ATOM      7  C   UNK A   1      10.740  -9.516  21.758  0.00  0.00    +0.000 C 
BRANCH   7   8
ATOM      8  C   UNK A   1       9.710 -10.441  22.397  0.00  0.00    +0.000 C 
BRANCH   8   9
ATOM      9  C   UNK A   1       8.421 -10.314  21.612  0.00  0.00    +0.000 C 
ATOM     10  O   UNK A   1       7.439  -9.731  22.087  0.00  0.00    +0.000 OA
ATOM     11  N   UNK A   2       8.438 -10.854  20.394  0.00  0.00    +0.000 N 
ATOM     12  H   UNK A   2       9.301 -11.320  20.048  0.00  0.00    +0.000 HD
BRANCH  11  13
ATOM     13  C   UNK A   2       7.261 -10.796  19.546  0.00  0.00    +0.000 C 
BRANCH  13  14
ATOM     14  C   UNK A   2       6.082 -11.532  20.162  0.00  0.00    +0.000 C 
ATOM     15  O   UNK A   2       4.963 -11.017  20.133  0.00  0.00    +0.000 OA
ENDBRANCH  13  14
BRANCH  13  16
ATOM     16  C   UNK A   2       7.573 -11.366  18.170  0.00  0.00    +0.000 C 
BRANCH  16  17
ATOM     17  C   UNK A   2       8.607 -10.573  17.413  0.00  0.00    +0.000 C 
BRANCH  17  18
ATOM     18  C   UNK A   2       8.203  -9.132  17.208  0.00  0.00    +0.000 C 
ATOM     19  O   UNK A   2       8.975  -8.232  17.586  0.00  0.00    +0.000 OA
ATOM     20  O   UNK A   2       7.113  -8.893  16.663  0.00  0.00    +0.000 OA
ENDBRANCH  17  18
ENDBRANCH  16  17
ENDBRANCH  13  16
ENDBRANCH  11  13
ENDBRANCH   8   9
BRANCH   8  21
ATOM     21  N   UNK A   1      10.127 -11.835  22.366  0.00  0.00    +0.000 NA
ATOM     22  H   UNK A   1      11.071 -12.087  22.009  0.00  0.00    +0.000 HD
ENDBRANCH   8  21
ENDBRANCH   7   8
ENDBRANCH   2   7
ENDBRANCH   1   5
BRANCH   1  23
ATOM     23  N   UNK A   2       6.125  -5.831  20.358  0.00  0.00    +0.000 N 
ATOM     24  C   UNK A   2       5.299  -5.307  21.244  0.00  0.00    +0.000 A 
ATOM     25  N   UNK A   2       4.274  -6.129  21.399  0.00  0.00    +0.000 NA
ATOM     26  C   UNK A   2       4.438  -7.227  20.582  0.00  0.00    +0.000 A 
ATOM     27  C   UNK A   2       5.612  -7.034  19.932  0.00  0.00    +0.000 A 
BRANCH  26  28
ATOM     28  C   UNK A   2       3.406  -8.310  20.462  0.00  0.00    +0.000 C 
BRANCH  28  29
ATOM     29  C   UNK A   2       2.946  -8.892  21.799  0.00  0.00    +0.000 C 
BRANCH  29  30
ATOM     30  C   UNK A   2       1.733  -9.796  21.584  0.00  0.00    +0.000 C 
ATOM     31  O   UNK A   1       0.625  -9.497  22.058  0.00  0.00    +0.000 OA
ENDBRANCH  29  30
BRANCH  29  32
ATOM     32  N   UNK A   2       3.978  -9.706  22.401  0.00  0.00    +0.000 NA
ATOM     33  H   UNK A   1       4.838  -9.937  21.864  0.00  0.00    +0.000 HD
ENDBRANCH  29  32
ENDBRANCH  28  29
ENDBRANCH  26  28
ENDBRANCH   1  23
BRANCH   1  34
ATOM     34  O   UNK A   2       8.114  -3.512  21.429  0.00  0.00    +0.000 OA
BRANCH  34  35
ATOM     35  C   UNK A   2       7.313  -2.604  21.741  0.00  0.00    +0.000 C 
ATOM     36  O   UNK A   2       6.348  -2.261  21.030  0.00  0.00    +0.000 OA
BRANCH  35  37
ATOM     37  C   UNK A   2       7.531  -1.865  23.024  0.00  0.00    +0.000 C 
BRANCH  37  38
ATOM     38  C   UNK A   2       8.058  -2.735  24.124  0.00  0.00    +0.000 C 
BRANCH  38  39
ATOM     39  C   UNK A   2       7.184  -3.934  24.501  0.00  0.00    +0.000 C 
BRANCH  39  40
ATOM     40  N   UNK A   2       5.824  -3.510  24.814  0.00  0.00    +0.000 N 
ATOM     41  H   UNK A   2       5.641  -2.515  25.054  0.00  0.00    +0.000 HD
ATOM     42  C   UNK A   1       4.817  -4.374  24.797  0.00  0.00    +0.000 C 
ATOM     43  O   UNK A   1       4.965  -5.566  24.526  0.00  0.00    +0.000 OA
BRANCH  42  44
ATOM     44  C   UNK A   1       3.448  -3.825  25.133  0.00  0.00    +0.000 C 
BRANCH  44  45
ATOM     45  N   UNK A   1       3.492  -2.928  26.268  0.00  0.00    +0.000 NA
ATOM     46  H   UNK A   1       3.298  -1.915  26.134  0.00  0.00    +0.000 HD
ENDBRANCH  44  45
BRANCH  44  47
ATOM     47  C   UNK A   1       2.847  -3.122  23.921  0.00  0.00    +0.000 C 
BRANCH  47  48
ATOM     48  C   UNK A   1       1.793  -3.934  23.239  0.00  0.00    +0.000 A 
ATOM     49  C   UNK A   1       0.464  -3.729  23.092  0.00  0.00    +0.000 A 
ATOM     50  N   UNK A   1      -0.053  -4.845  22.483  0.00  0.00    +0.000 NA
ATOM     51  C   UNK A   1       0.925  -5.703  22.257  0.00  0.00    +0.000 A 
ATOM     52  N   UNK A   1       2.052  -5.176  22.700  0.00  0.00    +0.000 NA
ENDBRANCH  47  48
ENDBRANCH  44  47
ENDBRANCH  42  44
ENDBRANCH  39  40
BRANCH  39  53
ATOM     53  C   UNK A   2       7.887  -4.676  25.639  0.00  0.00    +0.000 C 
ATOM     54  O   UNK A   2       9.003  -5.136  25.446  0.00  0.00    +0.000 OA
ENDBRANCH  39  53
ENDBRANCH  38  39
ENDBRANCH  37  38
ENDBRANCH  35  37
ENDBRANCH  34  35
ENDBRANCH   1  34
TORSDOF 26
REMARK  Name = ../refined-set-2016/1j37/1j37_pocket.pdb
REMARK  167 active torsions:
REMARK  status: ('A' for Active; 'I' for Inactive)
REMARK    1  A    between atoms: _1  and  _3
REMARK    2  A    between atoms: _3  and  _4
REMARK    3  A    between atoms: _3  and  _6
REMARK    4  A    between atoms: _6  and  _7
REMARK    5  A    between atoms: _7  and  _8
REMARK    6  A    between atoms: _11  and  _13
REMARK    7  A    between atoms: _13  and  _14
REMARK    8  A    between atoms: _13  and  _16
REMARK    9  A    between atoms: _16  and  _17
REMARK   10  A    between atoms: _22  and  _24
REMARK   11  A    between atoms: _24  and  _25
REMARK   12  A    between atoms: _24  and  _27
REMARK   13  A    between atoms: _27  and  _28
REMARK   14  A    between atoms: _38  and  _40
REMARK   15  A    between atoms: _40  and  _41
REMARK   16  A    between atoms: _40  and  _43
REMARK   17  A    between atoms: _43  and  _44
REMARK   18  A    between atoms: _44  and  _45
REMARK   19  A    between atoms: _50  and  _52
REMARK   20  A    between atoms: _52  and  _53
REMARK   21  A    between atoms: _52  and  _55
REMARK   22  A    between atoms: _55  and  _56
REMARK   23  A    between atoms: _56  and  _57
REMARK   24  A    between atoms: _62  and  _64
REMARK   25  A    between atoms: _64  and  _65
REMARK   26  A    between atoms: _64  and  _67
REMARK   27  A    between atoms: _69  and  _71
REMARK   28  A    between atoms: _71  and  _72
REMARK   29  A    between atoms: _71  and  _74
REMARK   30  A    between atoms: _74  and  _75
REMARK   31  A    between atoms: _80  and  _82
REMARK   32  A    between atoms: _82  and  _83
REMARK   33  A    between atoms: _86  and  _88
REMARK   34  A    between atoms: _88  and  _89
REMARK   35  A    between atoms: _88  and  _91
REMARK   36  A    between atoms: _91  and  _92
REMARK   37  A    between atoms: _94  and  _96
REMARK   38  A    between atoms: _96  and  _97
REMARK   39  A    between atoms: _100  and  _102
REMARK   40  A    between atoms: _102  and  _103
REMARK   41  A    between atoms: _102  and  _105
REMARK   42  A    between atoms: _105  and  _106
REMARK   43  A    between atoms: _106  and  _107
REMARK   44  A    between atoms: _107  and  _108
REMARK   45  A    between atoms: _108  and  _109
REMARK   46  A    between atoms: _113  and  _115
REMARK   47  A    between atoms: _115  and  _116
REMARK   48  A    between atoms: _115  and  _118
REMARK   49  A    between atoms: _118  and  _119
REMARK   50  A    between atoms: _119  and  _120
REMARK   51  A    between atoms: _125  and  _127
REMARK   52  A    between atoms: _127  and  _128
REMARK   53  A    between atoms: _127  and  _130
REMARK   54  A    between atoms: _130  and  _131
REMARK   55  A    between atoms: _134  and  _136
REMARK   56  A    between atoms: _136  and  _137
REMARK   57  A    between atoms: _136  and  _139
REMARK   58  A    between atoms: _139  and  _140
REMARK   59  A    between atoms: _143  and  _145
REMARK   60  A    between atoms: _145  and  _146
REMARK   61  A    between atoms: _145  and  _148
REMARK   62  A    between atoms: _148  and  _149
REMARK   63  A    between atoms: _153  and  ZN_399
REMARK   64  A    between atoms: _154  and  _156
REMARK   65  A    between atoms: _156  and  _157
REMARK   66  A    between atoms: _156  and  _159
REMARK   67  A    between atoms: _159  and  _160
REMARK   68  A    between atoms: _160  and  _161
REMARK   69  A    between atoms: _164  and  _166
REMARK   70  A    between atoms: _166  and  _167
REMARK   71  A    between atoms: _166  and  _169
REMARK   72  A    between atoms: _169  and  _170
REMARK   73  A    between atoms: _174  and  ZN_399
REMARK   74  A    between atoms: _175  and  _177
REMARK   75  A    between atoms: _177  and  _178
REMARK   76  A    between atoms: _177  and  _180
REMARK   77  A    between atoms: _180  and  _181
REMARK   78  A    between atoms: _186  and  _188
REMARK   79  A    between atoms: _188  and  _189
REMARK   80  A    between atoms: _188  and  _191
REMARK   81  A    between atoms: _191  and  _192
REMARK   82  A    between atoms: _192  and  _193
REMARK   83  A    between atoms: _193  and  _194
REMARK   84  A    between atoms: _194  and  ZN_399
REMARK   85  A    between atoms: _196  and  _198
REMARK   86  A    between atoms: _198  and  _199
REMARK   87  A    between atoms: _198  and  _201
REMARK   88  A    between atoms: _201  and  _202
REMARK   89  A    between atoms: _205  and  _207
REMARK   90  A    between atoms: _207  and  _208
REMARK   91  A    between atoms: _207  and  _210
REMARK   92  A    between atoms: _210  and  _211
REMARK   93  A    between atoms: _214  and  _216
REMARK   94  A    between atoms: _216  and  _217
REMARK   95  A    between atoms: _216  and  _219
REMARK   96  A    between atoms: _219  and  _220
REMARK   97  A    between atoms: _220  and  _221
REMARK   98  A    between atoms: _221  and  _222
REMARK   99  A    between atoms: _222  and  _223
REMARK  100  A    between atoms: _227  and  _229
REMARK  101  A    between atoms: _229  and  _230
REMARK  102  A    between atoms: _229  and  _232
REMARK  103  A    between atoms: _232  and  _233
REMARK  104  A    between atoms: _239  and  _241
REMARK  105  A    between atoms: _241  and  _242
REMARK  106  A    between atoms: _241  and  _244
REMARK  107  A    between atoms: _244  and  _245
REMARK  108  A    between atoms: _251  and  _253
REMARK  109  A    between atoms: _253  and  _254
REMARK  110  A    between atoms: _257  and  _259
REMARK  111  A    between atoms: _259  and  _260
REMARK  112  A    between atoms: _259  and  _262
REMARK  113  A    between atoms: _262  and  _263
REMARK  114  A    between atoms: _263  and  _264
REMARK  115  A    between atoms: _266  and  _268
REMARK  116  A    between atoms: _268  and  _269
REMARK  117  A    between atoms: _268  and  _271
REMARK  118  A    between atoms: _271  and  _272
REMARK  119  A    between atoms: _272  and  _273
REMARK  120  A    between atoms: _273  and  _274
REMARK  121  A    between atoms: _274  and  _275
REMARK  122  A    between atoms: _279  and  _281
REMARK  123  A    between atoms: _281  and  _282
REMARK  124  A    between atoms: _281  and  _284
REMARK  125  A    between atoms: _284  and  _285
REMARK  126  A    between atoms: _290  and  _291
REMARK  127  A    between atoms: _293  and  _295
REMARK  128  A    between atoms: _295  and  _296
REMARK  129  A    between atoms: _295  and  _298
REMARK  130  A    between atoms: _298  and  _299
REMARK  131  A    between atoms: _304  and  _306
REMARK  132  A    between atoms: _306  and  _307
REMARK  133  A    between atoms: _306  and  _309
REMARK  134  A    between atoms: _312  and  _314
REMARK  135  A    between atoms: _314  and  _315
REMARK  136  A    between atoms: _314  and  _317
REMARK  137  A    between atoms: _317  and  _318
REMARK  138  A    between atoms: _318  and  _319
REMARK  139  A    between atoms: _322  and  _324
REMARK  140  A    between atoms: _324  and  _325
REMARK  141  A    between atoms: _324  and  _327
REMARK  142  A    between atoms: _327  and  _328
REMARK  143  A    between atoms: _333  and  _334
REMARK  144  A    between atoms: _336  and  _338
REMARK  145  A    between atoms: _338  and  _339
REMARK  146  A    between atoms: _338  and  _341
REMARK  147  A    between atoms: _341  and  _342
REMARK  148  A    between atoms: _342  and  _343
REMARK  149  A    between atoms: _343  and  _344
REMARK  150  A    between atoms: _353  and  _355
REMARK  151  A    between atoms: _355  and  _356
REMARK  152  A    between atoms: _355  and  _358
REMARK  153  A    between atoms: _358  and  _359
REMARK  154  A    between atoms: _364  and  _365
REMARK  155  A    between atoms: _367  and  _369
REMARK  156  A    between atoms: _369  and  _370
REMARK  157  A    between atoms: _369  and  _372
REMARK  158  A    between atoms: _372  and  _373
REMARK  159  A    between atoms: _375  and  _377
REMARK  160  A    between atoms: _377  and  _378
REMARK  161  A    between atoms: _377  and  _380
REMARK  162  A    between atoms: _380  and  _381
REMARK  163  A    between atoms: _387  and  _389
REMARK  164  A    between atoms: _389  and  _390
REMARK  165  A    between atoms: _389  and  _392
REMARK  166  A    between atoms: _392  and  _393
REMARK  167  A    between atoms: _393  and  _394
REMARK                            x       y       z     vdW  Elec       q    Type
REMARK                         _______ _______ _______ _____ _____    ______ ____
ROOT
ATOM      1  CA  ASP A   1      11.218  -9.352  27.272  0.00  0.00    +0.144 C 
ENDROOT
BRANCH   1   2
ATOM      2  N   ASP A   1       9.826  -9.515  26.876  0.00  0.00    -0.239 NA
ATOM      3  H   ASP A   1       9.156  -8.724  26.964  0.00  0.00    +0.142 HD
ENDBRANCH   1   2
BRANCH   1   4
ATOM      4  C   ASP A   1      11.469  -9.956  28.654  0.00  0.00    +0.225 C 
ATOM      5  O   ASP A   1      12.583 -10.390  28.974  0.00  0.00    -0.287 OA
ENDBRANCH   1   4
BRANCH   1   6
ATOM      6  CB  ASP A   1      11.612  -7.880  27.268  0.00  0.00    +0.139 C 
BRANCH   6   7
ATOM      7  CG  ASP A   1      11.921  -7.369  25.876  0.00  0.00    +0.367 C 
ATOM      8  OD2 ASP A   1      12.143  -6.150  25.720  0.00  0.00    -0.246 OA
ATOM      9  OD1 ASP A   1      11.948  -8.196  24.943  0.00  0.00    -0.246 OA
ENDBRANCH   6   7
ENDBRANCH   1   6
TORSDOF 4
REMARK  Name = ../refined-set-2016/1j37/1j37_pocket.pdb
REMARK  167 active torsions:
REMARK  status: ('A' for Active; 'I' for Inactive)
REMARK    1  A    between atoms: _1  and  _3
REMARK    2  A    between atoms: _3  and  _4
REMARK    3  A    between atoms: _3  and  _6
REMARK    4  A    between atoms: _6  and  _7
REMARK    5  A    between atoms: _7  and  _8
REMARK    6  A    between atoms: _11  and  _13
REMARK    7  A    between atoms: _13  and  _14
REMARK    8  A    between atoms: _13  and  _16
REMARK    9  A    between atoms: _16  and  _17
REMARK   10  A    between atoms: _22  and  _24
REMARK   11  A    between atoms: _24  and  _25
REMARK   12  A    between atoms: _24  and  _27
REMARK   13  A    between atoms: _27  and  _28
REMARK   14  A    between atoms: _38  and  _40
REMARK   15  A    between atoms: _40  and  _41
REMARK   16  A    between atoms: _40  and  _43
REMARK   17  A    between atoms: _43  and  _44
REMARK   18  A    between atoms: _44  and  _45
REMARK   19  A    between atoms: _50  and  _52
REMARK   20  A    between atoms: _52  and  _53
REMARK   21  A    between atoms: _52  and  _55
REMARK   22  A    between atoms: _55  and  _56
REMARK   23  A    between atoms: _56  and  _57
REMARK   24  A    between atoms: _62  and  _64
REMARK   25  A    between atoms: _64  and  _65
REMARK   26  A    between atoms: _64  and  _67
REMARK   27  A    between atoms: _69  and  _71
REMARK   28  A    between atoms: _71  and  _72
REMARK   29  A    between atoms: _71  and  _74
REMARK   30  A    between atoms: _74  and  _75
REMARK   31  A    between atoms: _80  and  _82
REMARK   32  A    between atoms: _82  and  _83
REMARK   33  A    between atoms: _86  and  _88
REMARK   34  A    between atoms: _88  and  _89
REMARK   35  A    between atoms: _88  and  _91
REMARK   36  A    between atoms: _91  and  _92
REMARK   37  A    between atoms: _94  and  _96
REMARK   38  A    between atoms: _96  and  _97
REMARK   39  A    between atoms: _100  and  _102
REMARK   40  A    between atoms: _102  and  _103
REMARK   41  A    between atoms: _102  and  _105
REMARK   42  A    between atoms: _105  and  _106
REMARK   43  A    between atoms: _106  and  _107
REMARK   44  A    between atoms: _107  and  _108
REMARK   45  A    between atoms: _108  and  _109
REMARK   46  A    between atoms: _113  and  _115
REMARK   47  A    between atoms: _115  and  _116
REMARK   48  A    between atoms: _115  and  _118
REMARK   49  A    between atoms: _118  and  _119
REMARK   50  A    between atoms: _119  and  _120
REMARK   51  A    between atoms: _125  and  _127
REMARK   52  A    between atoms: _127  and  _128
REMARK   53  A    between atoms: _127  and  _130
REMARK   54  A    between atoms: _130  and  _131
REMARK   55  A    between atoms: _134  and  _136
REMARK   56  A    between atoms: _136  and  _137
REMARK   57  A    between atoms: _136  and  _139
REMARK   58  A    between atoms: _139  and  _140
REMARK   59  A    between atoms: _143  and  _145
REMARK   60  A    between atoms: _145  and  _146
REMARK   61  A    between atoms: _145  and  _148
REMARK   62  A    between atoms: _148  and  _149
REMARK   63  A    between atoms: _153  and  ZN_399
REMARK   64  A    between atoms: _154  and  _156
REMARK   65  A    between atoms: _156  and  _157
REMARK   66  A    between atoms: _156  and  _159
REMARK   67  A    between atoms: _159  and  _160
REMARK   68  A    between atoms: _160  and  _161
REMARK   69  A    between atoms: _164  and  _166
REMARK   70  A    between atoms: _166  and  _167
REMARK   71  A    between atoms: _166  and  _169
REMARK   72  A    between atoms: _169  and  _170
REMARK   73  A    between atoms: _174  and  ZN_399
REMARK   74  A    between atoms: _175  and  _177
REMARK   75  A    between atoms: _177  and  _178
REMARK   76  A    between atoms: _177  and  _180
REMARK   77  A    between atoms: _180  and  _181
REMARK   78  A    between atoms: _186  and  _188
REMARK   79  A    between atoms: _188  and  _189
REMARK   80  A    between atoms: _188  and  _191
REMARK   81  A    between atoms: _191  and  _192
REMARK   82  A    between atoms: _192  and  _193
REMARK   83  A    between atoms: _193  and  _194
REMARK   84  A    between atoms: _194  and  ZN_399
REMARK   85  A    between atoms: _196  and  _198
REMARK   86  A    between atoms: _198  and  _199
REMARK   87  A    between atoms: _198  and  _201
REMARK   88  A    between atoms: _201  and  _202
REMARK   89  A    between atoms: _205  and  _207
REMARK   90  A    between atoms: _207  and  _208
REMARK   91  A    between atoms: _207  and  _210
REMARK   92  A    between atoms: _210  and  _211
REMARK   93  A    between atoms: _214  and  _216
REMARK   94  A    between atoms: _216  and  _217
REMARK   95  A    between atoms: _216  and  _219
REMARK   96  A    between atoms: _219  and  _220
REMARK   97  A    between atoms: _220  and  _221
REMARK   98  A    between atoms: _221  and  _222
REMARK   99  A    between atoms: _222  and  _223
REMARK  100  A    between atoms: _227  and  _229
REMARK  101  A    between atoms: _229  and  _230
REMARK  102  A    between atoms: _229  and  _232
REMARK  103  A    between atoms: _232  and  _233
REMARK  104  A    between atoms: _239  and  _241
REMARK  105  A    between atoms: _241  and  _242
REMARK  106  A    between atoms: _241  and  _244
REMARK  107  A    between atoms: _244  and  _245
REMARK  108  A    between atoms: _251  and  _253
REMARK  109  A    between atoms: _253  and  _254
REMARK  110  A    between atoms: _257  and  _259
REMARK  111  A    between atoms: _259  and  _260
REMARK  112  A    between atoms: _259  and  _262
REMARK  113  A    between atoms: _262  and  _263
REMARK  114  A    between atoms: _263  and  _264
REMARK  115  A    between atoms: _266  and  _268
REMARK  116  A    between atoms: _268  and  _269
REMARK  117  A    between atoms: _268  and  _271
REMARK  118  A    between atoms: _271  and  _272
REMARK  119  A    between atoms: _272  and  _273
REMARK  120  A    between atoms: _273  and  _274
REMARK  121  A    between atoms: _274  and  _275
REMARK  122  A    between atoms: _279  and  _281
REMARK  123  A    between atoms: _281  and  _282
REMARK  124  A    between atoms: _281  and  _284
REMARK  125  A    between atoms: _284  and  _285
REMARK  126  A    between atoms: _290  and  _291
REMARK  127  A    between atoms: _293  and  _295
REMARK  128  A    between atoms: _295  and  _296
REMARK  129  A    between atoms: _295  and  _298
REMARK  130  A    between atoms: _298  and  _299
REMARK  131  A    between atoms: _304  and  _306
REMARK  132  A    between atoms: _306  and  _307
REMARK  133  A    between atoms: _306  and  _309
REMARK  134  A    between atoms: _312  and  _314
REMARK  135  A    between atoms: _314  and  _315
REMARK  136  A    between atoms: _314  and  _317
REMARK  137  A    between atoms: _317  and  _318
REMARK  138  A    between atoms: _318  and  _319
REMARK  139  A    between atoms: _322  and  _324
REMARK  140  A    between atoms: _324  and  _325
REMARK  141  A    between atoms: _324  and  _327
REMARK  142  A    between atoms: _327  and  _328
REMARK  143  A    between atoms: _333  and  _334
REMARK  144  A    between atoms: _336  and  _338
REMARK  145  A    between atoms: _338  and  _339
REMARK  146  A    between atoms: _338  and  _341
REMARK  147  A    between atoms: _341  and  _342
REMARK  148  A    between atoms: _342  and  _343
REMARK  149  A    between atoms: _343  and  _344
REMARK  150  A    between atoms: _353  and  _355
REMARK  151  A    between atoms: _355  and  _356
REMARK  152  A    between atoms: _355  and  _358
REMARK  153  A    between atoms: _358  and  _359
REMARK  154  A    between atoms: _364  and  _365
REMARK  155  A    between atoms: _367  and  _369
REMARK  156  A    between atoms: _369  and  _370
REMARK  157  A    between atoms: _369  and  _372
REMARK  158  A    between atoms: _372  and  _373
REMARK  159  A    between atoms: _375  and  _377
REMARK  160  A    between atoms: _377  and  _378
REMARK  161  A    between atoms: _377  and  _380
REMARK  162  A    between atoms: _380  and  _381
REMARK  163  A    between atoms: _387  and  _389
REMARK  164  A    between atoms: _389  and  _390
REMARK  165  A    between atoms: _389  and  _392
REMARK  166  A    between atoms: _392  and  _393
REMARK  167  A    between atoms: _393  and  _394
REMARK                            x       y       z     vdW  Elec       q    Type
REMARK                         _______ _______ _______ _____ _____    ______ ____
ROOT
ATOM      1  C   ASP A   1      20.718  -4.080  26.363  0.00  0.00    +0.239 C 
ATOM      2  N   LYS A   2      20.758  -4.207  27.684  0.00  0.00    -0.298 N 
ATOM      3  H   LYS A   2      21.488  -4.818  28.103  0.00  0.00    +0.150 HD
ATOM      4  O   ASP A   1      19.917  -3.354  25.778  0.00  0.00    -0.274 OA
ENDROOT
BRANCH   1   5
ATOM      5  CA  ASP A   1      21.739  -4.904  25.591  0.00  0.00    +0.156 C 
BRANCH   5   6
ATOM      6  N   ASP A   1      23.023  -5.008  26.285  0.00  0.00    -0.238 NA
ATOM      7  H   ASP A   1      23.102  -5.619  27.123  0.00  0.00    +0.142 HD
ENDBRANCH   5   6
BRANCH   5   8
ATOM      8  CB  ASP A   1      21.131  -6.290  25.353  0.00  0.00    +0.140 C 
BRANCH   8   9
ATOM      9  CG  ASP A   1      22.102  -7.256  24.731  0.00  0.00    +0.367 C 
ATOM     10  OD2 ASP A   1      21.877  -8.484  24.836  0.00  0.00    -0.246 OA
ATOM     11  OD1 ASP A   1      23.086  -6.799  24.120  0.00  0.00    -0.246 OA
ENDBRANCH   8   9
ENDBRANCH   5   8
ENDBRANCH   1   5
BRANCH   2  12
ATOM     12  CA  LYS A   2      19.817  -3.522  28.580  0.00  0.00    +0.137 C 
BRANCH  12  13
ATOM     13  C   LYS A   2      20.216  -2.148  29.158  0.00  0.00    +0.227 C 
ATOM     14  O   LYS A   2      19.410  -1.221  29.176  0.00  0.00    -0.286 OA
ENDBRANCH  12  13
BRANCH  12  15
ATOM     15  CB  LYS A   2      19.467  -4.463  29.734  0.00  0.00    +0.028 C 
BRANCH  15  16
ATOM     16  CG  LYS A   2      18.959  -5.839  29.287  0.00  0.00    -0.000 C 
BRANCH  16  17
ATOM     17  CD  LYS A   2      17.862  -5.679  28.260  0.00  0.00    -0.024 C 
BRANCH  17  18
ATOM     18  CE  LYS A   2      17.170  -6.971  27.949  0.00  0.00    -0.086 C 
BRANCH  18  19
ATOM     19  NZ  LYS A   2      16.091  -6.678  26.944  0.00  0.00    +0.380 N 
ATOM     20  HZ1 LYS A   2      15.419  -5.994  27.348  0.00  0.00    -0.089 HD
ATOM     21  HZ2 LYS A   2      15.591  -7.559  26.707  0.00  0.00    -0.089 HD
ATOM     22  HZ3 LYS A   2      16.519  -6.279  26.084  0.00  0.00    -0.089 HD
ENDBRANCH  18  19
ENDBRANCH  17  18
ENDBRANCH  16  17
ENDBRANCH  15  16
ENDBRANCH  12  15
ENDBRANCH   2  12
TORSDOF 11
REMARK  Name = ../refined-set-2016/1j37/1j37_pocket.pdb
REMARK  167 active torsions:
REMARK  status: ('A' for Active; 'I' for Inactive)
REMARK    1  A    between atoms: _1  and  _3
REMARK    2  A    between atoms: _3  and  _4
REMARK    3  A    between atoms: _3  and  _6
REMARK    4  A    between atoms: _6  and  _7
REMARK    5  A    between atoms: _7  and  _8
REMARK    6  A    between atoms: _11  and  _13
REMARK    7  A    between atoms: _13  and  _14
REMARK    8  A    between atoms: _13  and  _16
REMARK    9  A    between atoms: _16  and  _17
REMARK   10  A    between atoms: _22  and  _24
REMARK   11  A    between atoms: _24  and  _25
REMARK   12  A    between atoms: _24  and  _27
REMARK   13  A    between atoms: _27  and  _28
REMARK   14  A    between atoms: _38  and  _40
REMARK   15  A    between atoms: _40  and  _41
REMARK   16  A    between atoms: _40  and  _43
REMARK   17  A    between atoms: _43  and  _44
REMARK   18  A    between atoms: _44  and  _45
REMARK   19  A    between atoms: _50  and  _52
REMARK   20  A    between atoms: _52  and  _53
REMARK   21  A    between atoms: _52  and  _55
REMARK   22  A    between atoms: _55  and  _56
REMARK   23  A    between atoms: _56  and  _57
REMARK   24  A    between atoms: _62  and  _64
REMARK   25  A    between atoms: _64  and  _65
REMARK   26  A    between atoms: _64  and  _67
REMARK   27  A    between atoms: _69  and  _71
REMARK   28  A    between atoms: _71  and  _72
REMARK   29  A    between atoms: _71  and  _74
REMARK   30  A    between atoms: _74  and  _75
REMARK   31  A    between atoms: _80  and  _82
REMARK   32  A    between atoms: _82  and  _83
REMARK   33  A    between atoms: _86  and  _88
REMARK   34  A    between atoms: _88  and  _89
REMARK   35  A    between atoms: _88  and  _91
REMARK   36  A    between atoms: _91  and  _92
REMARK   37  A    between atoms: _94  and  _96
REMARK   38  A    between atoms: _96  and  _97
REMARK   39  A    between atoms: _100  and  _102
REMARK   40  A    between atoms: _102  and  _103
REMARK   41  A    between atoms: _102  and  _105
REMARK   42  A    between atoms: _105  and  _106
REMARK   43  A    between atoms: _106  and  _107
REMARK   44  A    between atoms: _107  and  _108
REMARK   45  A    between atoms: _108  and  _109
REMARK   46  A    between atoms: _113  and  _115
REMARK   47  A    between atoms: _115  and  _116
REMARK   48  A    between atoms: _115  and  _118
REMARK   49  A    between atoms: _118  and  _119
REMARK   50  A    between atoms: _119  and  _120
REMARK   51  A    between atoms: _125  and  _127
REMARK   52  A    between atoms: _127  and  _128
REMARK   53  A    between atoms: _127  and  _130
REMARK   54  A    between atoms: _130  and  _131
REMARK   55  A    between atoms: _134  and  _136
REMARK   56  A    between atoms: _136  and  _137
REMARK   57  A    between atoms: _136  and  _139
REMARK   58  A    between atoms: _139  and  _140
REMARK   59  A    between atoms: _143  and  _145
REMARK   60  A    between atoms: _145  and  _146
REMARK   61  A    between atoms: _145  and  _148
REMARK   62  A    between atoms: _148  and  _149
REMARK   63  A    between atoms: _153  and  ZN_399
REMARK   64  A    between atoms: _154  and  _156
REMARK   65  A    between atoms: _156  and  _157
REMARK   66  A    between atoms: _156  and  _159
REMARK   67  A    between atoms: _159  and  _160
REMARK   68  A    between atoms: _160  and  _161
REMARK   69  A    between atoms: _164  and  _166
REMARK   70  A    between atoms: _166  and  _167
REMARK   71  A    between atoms: _166  and  _169
REMARK   72  A    between atoms: _169  and  _170
REMARK   73  A    between atoms: _174  and  ZN_399
REMARK   74  A    between atoms: _175  and  _177
REMARK   75  A    between atoms: _177  and  _178
REMARK   76  A    between atoms: _177  and  _180
REMARK   77  A    between atoms: _180  and  _181
REMARK   78  A    between atoms: _186  and  _188
REMARK   79  A    between atoms: _188  and  _189
REMARK   80  A    between atoms: _188  and  _191
REMARK   81  A    between atoms: _191  and  _192
REMARK   82  A    between atoms: _192  and  _193
REMARK   83  A    between atoms: _193  and  _194
REMARK   84  A    between atoms: _194  and  ZN_399
REMARK   85  A    between atoms: _196  and  _198
REMARK   86  A    between atoms: _198  and  _199
REMARK   87  A    between atoms: _198  and  _201
REMARK   88  A    between atoms: _201  and  _202
REMARK   89  A    between atoms: _205  and  _207
REMARK   90  A    between atoms: _207  and  _208
REMARK   91  A    between atoms: _207  and  _210
REMARK   92  A    between atoms: _210  and  _211
REMARK   93  A    between atoms: _214  and  _216
REMARK   94  A    between atoms: _216  and  _217
REMARK   95  A    between atoms: _216  and  _219
REMARK   96  A    between atoms: _219  and  _220
REMARK   97  A    between atoms: _220  and  _221
REMARK   98  A    between atoms: _221  and  _222
REMARK   99  A    between atoms: _222  and  _223
REMARK  100  A    between atoms: _227  and  _229
REMARK  101  A    between atoms: _229  and  _230
REMARK  102  A    between atoms: _229  and  _232
REMARK  103  A    between atoms: _232  and  _233
REMARK  104  A    between atoms: _239  and  _241
REMARK  105  A    between atoms: _241  and  _242
REMARK  106  A    between atoms: _241  and  _244
REMARK  107  A    between atoms: _244  and  _245
REMARK  108  A    between atoms: _251  and  _253
REMARK  109  A    between atoms: _253  and  _254
REMARK  110  A    between atoms: _257  and  _259
REMARK  111  A    between atoms: _259  and  _260
REMARK  112  A    between atoms: _259  and  _262
REMARK  113  A    between atoms: _262  and  _263
REMARK  114  A    between atoms: _263  and  _264
REMARK  115  A    between atoms: _266  and  _268
REMARK  116  A    between atoms: _268  and  _269
REMARK  117  A    between atoms: _268  and  _271
REMARK  118  A    between atoms: _271  and  _272
REMARK  119  A    between atoms: _272  and  _273
REMARK  120  A    between atoms: _273  and  _274
REMARK  121  A    between atoms: _274  and  _275
REMARK  122  A    between atoms: _279  and  _281
REMARK  123  A    between atoms: _281  and  _282
REMARK  124  A    between atoms: _281  and  _284
REMARK  125  A    between atoms: _284  and  _285
REMARK  126  A    between atoms: _290  and  _291
REMARK  127  A    between atoms: _293  and  _295
REMARK  128  A    between atoms: _295  and  _296
REMARK  129  A    between atoms: _295  and  _298
REMARK  130  A    between atoms: _298  and  _299
REMARK  131  A    between atoms: _304  and  _306
REMARK  132  A    between atoms: _306  and  _307
REMARK  133  A    between atoms: _306  and  _309
REMARK  134  A    between atoms: _312  and  _314
REMARK  135  A    between atoms: _314  and  _315
REMARK  136  A    between atoms: _314  and  _317
REMARK  137  A    between atoms: _317  and  _318
REMARK  138  A    between atoms: _318  and  _319
REMARK  139  A    between atoms: _322  and  _324
REMARK  140  A    between atoms: _324  and  _325
REMARK  141  A    between atoms: _324  and  _327
REMARK  142  A    between atoms: _327  and  _328
REMARK  143  A    between atoms: _333  and  _334
REMARK  144  A    between atoms: _336  and  _338
REMARK  145  A    between atoms: _338  and  _339
REMARK  146  A    between atoms: _338  and  _341
REMARK  147  A    between atoms: _341  and  _342
REMARK  148  A    between atoms: _342  and  _343
REMARK  149  A    between atoms: _343  and  _344
REMARK  150  A    between atoms: _353  and  _355
REMARK  151  A    between atoms: _355  and  _356
REMARK  152  A    between atoms: _355  and  _358
REMARK  153  A    between atoms: _358  and  _359
REMARK  154  A    between atoms: _364  and  _365
REMARK  155  A    between atoms: _367  and  _369
REMARK  156  A    between atoms: _369  and  _370
REMARK  157  A    between atoms: _369  and  _372
REMARK  158  A    between atoms: _372  and  _373
REMARK  159  A    between atoms: _375  and  _377
REMARK  160  A    between atoms: _377  and  _378
REMARK  161  A    between atoms: _377  and  _380
REMARK  162  A    between atoms: _380  and  _381
REMARK  163  A    between atoms: _387  and  _389
REMARK  164  A    between atoms: _389  and  _390
REMARK  165  A    between atoms: _389  and  _392
REMARK  166  A    between atoms: _392  and  _393
REMARK  167  A    between atoms: _393  and  _394
REMARK                            x       y       z     vdW  Elec       q    Type
REMARK                         _______ _______ _______ _____ _____    ______ ____
ROOT
ATOM      1  CB  PHE A   1      19.173  -0.478  25.270  0.00  0.00    +0.051 C 
ENDROOT
BRANCH   1   2
ATOM      2  CG  PHE A   1      18.017  -0.277  24.356  0.00  0.00    -0.020 A 
ATOM      3  CD2 PHE A   1      16.773   0.031  24.858  0.00  0.00    -0.004 A 
ATOM      4  CE2 PHE A   1      15.695   0.190  24.001  0.00  0.00    -0.000 A 
ATOM      5  CZ  PHE A   1      15.880   0.038  22.614  0.00  0.00    -0.000 A 
ATOM      6  CE1 PHE A   1      17.118  -0.263  22.121  0.00  0.00    -0.000 A 
ATOM      7  CD1 PHE A   1      18.169  -0.416  22.987  0.00  0.00    -0.004 A 
ENDBRANCH   1   2
BRANCH   1   8
ATOM      8  CA  PHE A   1      20.128   0.715  25.338  0.00  0.00    +0.137 C 
BRANCH   8   9
ATOM      9  N   PHE A   1      21.290   0.333  26.131  0.00  0.00    -0.239 NA
ATOM     10  H   PHE A   1      21.229  -0.536  26.699  0.00  0.00    +0.142 HD
ENDBRANCH   8   9
BRANCH   8  11
ATOM     11  C   PHE A   1      19.376   1.933  25.888  0.00  0.00    +0.224 C 
ATOM     12  O   PHE A   1      18.843   2.742  25.127  0.00  0.00    -0.287 OA
ENDBRANCH   8  11
ENDBRANCH   1   8
TORSDOF 4
REMARK  Name = ../refined-set-2016/1j37/1j37_pocket.pdb
REMARK  167 active torsions:
REMARK  status: ('A' for Active; 'I' for Inactive)
REMARK    1  A    between atoms: _1  and  _3
REMARK    2  A    between atoms: _3  and  _4
REMARK    3  A    between atoms: _3  and  _6
REMARK    4  A    between atoms: _6  and  _7
REMARK    5  A    between atoms: _7  and  _8
REMARK    6  A    between atoms: _11  and  _13
REMARK    7  A    between atoms: _13  and  _14
REMARK    8  A    between atoms: _13  and  _16
REMARK    9  A    between atoms: _16  and  _17
REMARK   10  A    between atoms: _22  and  _24
REMARK   11  A    between atoms: _24  and  _25
REMARK   12  A    between atoms: _24  and  _27
REMARK   13  A    between atoms: _27  and  _28
REMARK   14  A    between atoms: _38  and  _40
REMARK   15  A    between atoms: _40  and  _41
REMARK   16  A    between atoms: _40  and  _43
REMARK   17  A    between atoms: _43  and  _44
REMARK   18  A    between atoms: _44  and  _45
REMARK   19  A    between atoms: _50  and  _52
REMARK   20  A    between atoms: _52  and  _53
REMARK   21  A    between atoms: _52  and  _55
REMARK   22  A    between atoms: _55  and  _56
REMARK   23  A    between atoms: _56  and  _57
REMARK   24  A    between atoms: _62  and  _64
REMARK   25  A    between atoms: _64  and  _65
REMARK   26  A    between atoms: _64  and  _67
REMARK   27  A    between atoms: _69  and  _71
REMARK   28  A    between atoms: _71  and  _72
REMARK   29  A    between atoms: _71  and  _74
REMARK   30  A    between atoms: _74  and  _75
REMARK   31  A    between atoms: _80  and  _82
REMARK   32  A    between atoms: _82  and  _83
REMARK   33  A    between atoms: _86  and  _88
REMARK   34  A    between atoms: _88  and  _89
REMARK   35  A    between atoms: _88  and  _91
REMARK   36  A    between atoms: _91  and  _92
REMARK   37  A    between atoms: _94  and  _96
REMARK   38  A    between atoms: _96  and  _97
REMARK   39  A    between atoms: _100  and  _102
REMARK   40  A    between atoms: _102  and  _103
REMARK   41  A    between atoms: _102  and  _105
REMARK   42  A    between atoms: _105  and  _106
REMARK   43  A    between atoms: _106  and  _107
REMARK   44  A    between atoms: _107  and  _108
REMARK   45  A    between atoms: _108  and  _109
REMARK   46  A    between atoms: _113  and  _115
REMARK   47  A    between atoms: _115  and  _116
REMARK   48  A    between atoms: _115  and  _118
REMARK   49  A    between atoms: _118  and  _119
REMARK   50  A    between atoms: _119  and  _120
REMARK   51  A    between atoms: _125  and  _127
REMARK   52  A    between atoms: _127  and  _128
REMARK   53  A    between atoms: _127  and  _130
REMARK   54  A    between atoms: _130  and  _131
REMARK   55  A    between atoms: _134  and  _136
REMARK   56  A    between atoms: _136  and  _137
REMARK   57  A    between atoms: _136  and  _139
REMARK   58  A    between atoms: _139  and  _140
REMARK   59  A    between atoms: _143  and  _145
REMARK   60  A    between atoms: _145  and  _146
REMARK   61  A    between atoms: _145  and  _148
REMARK   62  A    between atoms: _148  and  _149
REMARK   63  A    between atoms: _153  and  ZN_399
REMARK   64  A    between atoms: _154  and  _156
REMARK   65  A    between atoms: _156  and  _157
REMARK   66  A    between atoms: _156  and  _159
REMARK   67  A    between atoms: _159  and  _160
REMARK   68  A    between atoms: _160  and  _161
REMARK   69  A    between atoms: _164  and  _166
REMARK   70  A    between atoms: _166  and  _167
REMARK   71  A    between atoms: _166  and  _169
REMARK   72  A    between atoms: _169  and  _170
REMARK   73  A    between atoms: _174  and  ZN_399
REMARK   74  A    between atoms: _175  and  _177
REMARK   75  A    between atoms: _177  and  _178
REMARK   76  A    between atoms: _177  and  _180
REMARK   77  A    between atoms: _180  and  _181
REMARK   78  A    between atoms: _186  and  _188
REMARK   79  A    between atoms: _188  and  _189
REMARK   80  A    between atoms: _188  and  _191
REMARK   81  A    between atoms: _191  and  _192
REMARK   82  A    between atoms: _192  and  _193
REMARK   83  A    between atoms: _193  and  _194
REMARK   84  A    between atoms: _194  and  ZN_399
REMARK   85  A    between atoms: _196  and  _198
REMARK   86  A    between atoms: _198  and  _199
REMARK   87  A    between atoms: _198  and  _201
REMARK   88  A    between atoms: _201  and  _202
REMARK   89  A    between atoms: _205  and  _207
REMARK   90  A    between atoms: _207  and  _208
REMARK   91  A    between atoms: _207  and  _210
REMARK   92  A    between atoms: _210  and  _211
REMARK   93  A    between atoms: _214  and  _216
REMARK   94  A    between atoms: _216  and  _217
REMARK   95  A    between atoms: _216  and  _219
REMARK   96  A    between atoms: _219  and  _220
REMARK   97  A    between atoms: _220  and  _221
REMARK   98  A    between atoms: _221  and  _222
REMARK   99  A    between atoms: _222  and  _223
REMARK  100  A    between atoms: _227  and  _229
REMARK  101  A    between atoms: _229  and  _230
REMARK  102  A    between atoms: _229  and  _232
REMARK  103  A    between atoms: _232  and  _233
REMARK  104  A    between atoms: _239  and  _241
REMARK  105  A    between atoms: _241  and  _242
REMARK  106  A    between atoms: _241  and  _244
REMARK  107  A    between atoms: _244  and  _245
REMARK  108  A    between atoms: _251  and  _253
REMARK  109  A    between atoms: _253  and  _254
REMARK  110  A    between atoms: _257  and  _259
REMARK  111  A    between atoms: _259  and  _260
REMARK  112  A    between atoms: _259  and  _262
REMARK  113  A    between atoms: _262  and  _263
REMARK  114  A    between atoms: _263  and  _264
REMARK  115  A    between atoms: _266  and  _268
REMARK  116  A    between atoms: _268  and  _269
REMARK  117  A    between atoms: _268  and  _271
REMARK  118  A    between atoms: _271  and  _272
REMARK  119  A    between atoms: _272  and  _273
REMARK  120  A    between atoms: _273  and  _274
REMARK  121  A    between atoms: _274  and  _275
REMARK  122  A    between atoms: _279  and  _281
REMARK  123  A    between atoms: _281  and  _282
REMARK  124  A    between atoms: _281  and  _284
REMARK  125  A    between atoms: _284  and  _285
REMARK  126  A    between atoms: _290  and  _291
REMARK  127  A    between atoms: _293  and  _295
REMARK  128  A    between atoms: _295  and  _296
REMARK  129  A    between atoms: _295  and  _298
REMARK  130  A    between atoms: _298  and  _299
REMARK  131  A    between atoms: _304  and  _306
REMARK  132  A    between atoms: _306  and  _307
REMARK  133  A    between atoms: _306  and  _309
REMARK  134  A    between atoms: _312  and  _314
REMARK  135  A    between atoms: _314  and  _315
REMARK  136  A    between atoms: _314  and  _317
REMARK  137  A    between atoms: _317  and  _318
REMARK  138  A    between atoms: _318  and  _319
REMARK  139  A    between atoms: _322  and  _324
REMARK  140  A    between atoms: _324  and  _325
REMARK  141  A    between atoms: _324  and  _327
REMARK  142  A    between atoms: _327  and  _328
REMARK  143  A    between atoms: _333  and  _334
REMARK  144  A    between atoms: _336  and  _338
REMARK  145  A    between atoms: _338  and  _339
REMARK  146  A    between atoms: _338  and  _341
REMARK  147  A    between atoms: _341  and  _342
REMARK  148  A    between atoms: _342  and  _343
REMARK  149  A    between atoms: _343  and  _344
REMARK  150  A    between atoms: _353  and  _355
REMARK  151  A    between atoms: _355  and  _356
REMARK  152  A    between atoms: _355  and  _358
REMARK  153  A    between atoms: _358  and  _359
REMARK  154  A    between atoms: _364  and  _365
REMARK  155  A    between atoms: _367  and  _369
REMARK  156  A    between atoms: _369  and  _370
REMARK  157  A    between atoms: _369  and  _372
REMARK  158  A    between atoms: _372  and  _373
REMARK  159  A    between atoms: _375  and  _377
REMARK  160  A    between atoms: _377  and  _378
REMARK  161  A    between atoms: _377  and  _380
REMARK  162  A    between atoms: _380  and  _381
REMARK  163  A    between atoms: _387  and  _389
REMARK  164  A    between atoms: _389  and  _390
REMARK  165  A    between atoms: _389  and  _392
REMARK  166  A    between atoms: _392  and  _393
REMARK  167  A    between atoms: _393  and  _394
REMARK                            x       y       z     vdW  Elec       q    Type
REMARK                         _______ _______ _______ _____ _____    ______ ____
ROOT
ATOM      1  CA  PHE A   1      20.051   5.202  22.904  0.00  0.00    +0.149 C 
ENDROOT
BRANCH   1   2
ATOM      2  C   PHE A   1      18.612   5.539  22.572  0.00  0.00    +0.239 C 
ATOM      3  N   ALA A   2      17.705   4.832  23.229  0.00  0.00    -0.298 N 
ATOM      4  H   ALA A   2      18.033   4.144  23.937  0.00  0.00    +0.150 HD
ATOM      5  O   PHE A   1      18.334   6.413  21.764  0.00  0.00    -0.274 OA
BRANCH   3   6
ATOM      6  CA  ALA A   2      16.273   4.970  23.010  0.00  0.00    +0.137 C 
ATOM      7  CB  ALA A   2      15.539   3.836  23.718  0.00  0.00    +0.030 C 
BRANCH   6   8
ATOM      8  C   ALA A   2      15.774   6.312  23.482  0.00  0.00    +0.227 C 
ATOM      9  O   ALA A   2      14.806   6.848  22.944  0.00  0.00    -0.286 OA
ENDBRANCH   6   8
ENDBRANCH   3   6
ENDBRANCH   1   2
BRANCH   1  10
ATOM     10  N   PHE A   1      20.252   5.189  24.356  0.00  0.00    -0.238 NA
ATOM     11  H   PHE A   1      20.459   4.292  24.841  0.00  0.00    +0.142 HD
ENDBRANCH   1  10
BRANCH   1  12
ATOM     12  CB  PHE A   1      20.397   3.834  22.266  0.00  0.00    +0.053 C 
BRANCH  12  13
ATOM     13  CG  PHE A   1      19.844   3.652  20.860  0.00  0.00    -0.020 A 
ATOM     14  CD2 PHE A   1      18.574   3.122  20.656  0.00  0.00    -0.004 A 
ATOM     15  CE2 PHE A   1      18.035   3.029  19.351  0.00  0.00    -0.000 A 
ATOM     16  CZ  PHE A   1      18.766   3.457  18.261  0.00  0.00    -0.000 A 
ATOM     17  CE1 PHE A   1      20.030   3.976  18.450  0.00  0.00    -0.000 A 
ATOM     18  CD1 PHE A   1      20.567   4.073  19.742  0.00  0.00    -0.004 A 
ENDBRANCH  12  13
ENDBRANCH   1  12
TORSDOF 6
REMARK  Name = ../refined-set-2016/1j37/1j37_pocket.pdb
REMARK  167 active torsions:
REMARK  status: ('A' for Active; 'I' for Inactive)
REMARK    1  A    between atoms: _1  and  _3
REMARK    2  A    between atoms: _3  and  _4
REMARK    3  A    between atoms: _3  and  _6
REMARK    4  A    between atoms: _6  and  _7
REMARK    5  A    between atoms: _7  and  _8
REMARK    6  A    between atoms: _11  and  _13
REMARK    7  A    between atoms: _13  and  _14
REMARK    8  A    between atoms: _13  and  _16
REMARK    9  A    between atoms: _16  and  _17
REMARK   10  A    between atoms: _22  and  _24
REMARK   11  A    between atoms: _24  and  _25
REMARK   12  A    between atoms: _24  and  _27
REMARK   13  A    between atoms: _27  and  _28
REMARK   14  A    between atoms: _38  and  _40
REMARK   15  A    between atoms: _40  and  _41
REMARK   16  A    between atoms: _40  and  _43
REMARK   17  A    between atoms: _43  and  _44
REMARK   18  A    between atoms: _44  and  _45
REMARK   19  A    between atoms: _50  and  _52
REMARK   20  A    between atoms: _52  and  _53
REMARK   21  A    between atoms: _52  and  _55
REMARK   22  A    between atoms: _55  and  _56
REMARK   23  A    between atoms: _56  and  _57
REMARK   24  A    between atoms: _62  and  _64
REMARK   25  A    between atoms: _64  and  _65
REMARK   26  A    between atoms: _64  and  _67
REMARK   27  A    between atoms: _69  and  _71
REMARK   28  A    between atoms: _71  and  _72
REMARK   29  A    between atoms: _71  and  _74
REMARK   30  A    between atoms: _74  and  _75
REMARK   31  A    between atoms: _80  and  _82
REMARK   32  A    between atoms: _82  and  _83
REMARK   33  A    between atoms: _86  and  _88
REMARK   34  A    between atoms: _88  and  _89
REMARK   35  A    between atoms: _88  and  _91
REMARK   36  A    between atoms: _91  and  _92
REMARK   37  A    between atoms: _94  and  _96
REMARK   38  A    between atoms: _96  and  _97
REMARK   39  A    between atoms: _100  and  _102
REMARK   40  A    between atoms: _102  and  _103
REMARK   41  A    between atoms: _102  and  _105
REMARK   42  A    between atoms: _105  and  _106
REMARK   43  A    between atoms: _106  and  _107
REMARK   44  A    between atoms: _107  and  _108
REMARK   45  A    between atoms: _108  and  _109
REMARK   46  A    between atoms: _113  and  _115
REMARK   47  A    between atoms: _115  and  _116
REMARK   48  A    between atoms: _115  and  _118
REMARK   49  A    between atoms: _118  and  _119
REMARK   50  A    between atoms: _119  and  _120
REMARK   51  A    between atoms: _125  and  _127
REMARK   52  A    between atoms: _127  and  _128
REMARK   53  A    between atoms: _127  and  _130
REMARK   54  A    between atoms: _130  and  _131
REMARK   55  A    between atoms: _134  and  _136
REMARK   56  A    between atoms: _136  and  _137
REMARK   57  A    between atoms: _136  and  _139
REMARK   58  A    between atoms: _139  and  _140
REMARK   59  A    between atoms: _143  and  _145
REMARK   60  A    between atoms: _145  and  _146
REMARK   61  A    between atoms: _145  and  _148
REMARK   62  A    between atoms: _148  and  _149
REMARK   63  A    between atoms: _153  and  ZN_399
REMARK   64  A    between atoms: _154  and  _156
REMARK   65  A    between atoms: _156  and  _157
REMARK   66  A    between atoms: _156  and  _159
REMARK   67  A    between atoms: _159  and  _160
REMARK   68  A    between atoms: _160  and  _161
REMARK   69  A    between atoms: _164  and  _166
REMARK   70  A    between atoms: _166  and  _167
REMARK   71  A    between atoms: _166  and  _169
REMARK   72  A    between atoms: _169  and  _170
REMARK   73  A    between atoms: _174  and  ZN_399
REMARK   74  A    between atoms: _175  and  _177
REMARK   75  A    between atoms: _177  and  _178
REMARK   76  A    between atoms: _177  and  _180
REMARK   77  A    between atoms: _180  and  _181
REMARK   78  A    between atoms: _186  and  _188
REMARK   79  A    between atoms: _188  and  _189
REMARK   80  A    between atoms: _188  and  _191
REMARK   81  A    between atoms: _191  and  _192
REMARK   82  A    between atoms: _192  and  _193
REMARK   83  A    between atoms: _193  and  _194
REMARK   84  A    between atoms: _194  and  ZN_399
REMARK   85  A    between atoms: _196  and  _198
REMARK   86  A    between atoms: _198  and  _199
REMARK   87  A    between atoms: _198  and  _201
REMARK   88  A    between atoms: _201  and  _202
REMARK   89  A    between atoms: _205  and  _207
REMARK   90  A    between atoms: _207  and  _208
REMARK   91  A    between atoms: _207  and  _210
REMARK   92  A    between atoms: _210  and  _211
REMARK   93  A    between atoms: _214  and  _216
REMARK   94  A    between atoms: _216  and  _217
REMARK   95  A    between atoms: _216  and  _219
REMARK   96  A    between atoms: _219  and  _220
REMARK   97  A    between atoms: _220  and  _221
REMARK   98  A    between atoms: _221  and  _222
REMARK   99  A    between atoms: _222  and  _223
REMARK  100  A    between atoms: _227  and  _229
REMARK  101  A    between atoms: _229  and  _230
REMARK  102  A    between atoms: _229  and  _232
REMARK  103  A    between atoms: _232  and  _233
REMARK  104  A    between atoms: _239  and  _241
REMARK  105  A    between atoms: _241  and  _242
REMARK  106  A    between atoms: _241  and  _244
REMARK  107  A    between atoms: _244  and  _245
REMARK  108  A    between atoms: _251  and  _253
REMARK  109  A    between atoms: _253  and  _254
REMARK  110  A    between atoms: _257  and  _259
REMARK  111  A    between atoms: _259  and  _260
REMARK  112  A    between atoms: _259  and  _262
REMARK  113  A    between atoms: _262  and  _263
REMARK  114  A    between atoms: _263  and  _264
REMARK  115  A    between atoms: _266  and  _268
REMARK  116  A    between atoms: _268  and  _269
REMARK  117  A    between atoms: _268  and  _271
REMARK  118  A    between atoms: _271  and  _272
REMARK  119  A    between atoms: _272  and  _273
REMARK  120  A    between atoms: _273  and  _274
REMARK  121  A    between atoms: _274  and  _275
REMARK  122  A    between atoms: _279  and  _281
REMARK  123  A    between atoms: _281  and  _282
REMARK  124  A    between atoms: _281  and  _284
REMARK  125  A    between atoms: _284  and  _285
REMARK  126  A    between atoms: _290  and  _291
REMARK  127  A    between atoms: _293  and  _295
REMARK  128  A    between atoms: _295  and  _296
REMARK  129  A    between atoms: _295  and  _298
REMARK  130  A    between atoms: _298  and  _299
REMARK  131  A    between atoms: _304  and  _306
REMARK  132  A    between atoms: _306  and  _307
REMARK  133  A    between atoms: _306  and  _309
REMARK  134  A    between atoms: _312  and  _314
REMARK  135  A    between atoms: _314  and  _315
REMARK  136  A    between atoms: _314  and  _317
REMARK  137  A    between atoms: _317  and  _318
REMARK  138  A    between atoms: _318  and  _319
REMARK  139  A    between atoms: _322  and  _324
REMARK  140  A    between atoms: _324  and  _325
REMARK  141  A    between atoms: _324  and  _327
REMARK  142  A    between atoms: _327  and  _328
REMARK  143  A    between atoms: _333  and  _334
REMARK  144  A    between atoms: _336  and  _338
REMARK  145  A    between atoms: _338  and  _339
REMARK  146  A    between atoms: _338  and  _341
REMARK  147  A    between atoms: _341  and  _342
REMARK  148  A    between atoms: _342  and  _343
REMARK  149  A    between atoms: _343  and  _344
REMARK  150  A    between atoms: _353  and  _355
REMARK  151  A    between atoms: _355  and  _356
REMARK  152  A    between atoms: _355  and  _358
REMARK  153  A    between atoms: _358  and  _359
REMARK  154  A    between atoms: _364  and  _365
REMARK  155  A    between atoms: _367  and  _369
REMARK  156  A    between atoms: _369  and  _370
REMARK  157  A    between atoms: _369  and  _372
REMARK  158  A    between atoms: _372  and  _373
REMARK  159  A    between atoms: _375  and  _377
REMARK  160  A    between atoms: _377  and  _378
REMARK  161  A    between atoms: _377  and  _380
REMARK  162  A    between atoms: _380  and  _381
REMARK  163  A    between atoms: _387  and  _389
REMARK  164  A    between atoms: _389  and  _390
REMARK  165  A    between atoms: _389  and  _392
REMARK  166  A    between atoms: _392  and  _393
REMARK  167  A    between atoms: _393  and  _394
REMARK                            x       y       z     vdW  Elec       q    Type
REMARK                         _______ _______ _______ _____ _____    ______ ____
ROOT
ATOM      1  CA  MET A   1      15.813   8.673  19.569  0.00  0.00    +0.134 C 
ENDROOT
BRANCH   1   2
ATOM      2  N   MET A   1      16.656   8.836  20.745  0.00  0.00    -0.239 NA
ATOM      3  H   MET A   1      16.907   8.005  21.318  0.00  0.00    +0.142 HD
ENDBRANCH   1   2
BRANCH   1   4
ATOM      4  C   MET A   1      14.606   9.611  19.609  0.00  0.00    +0.224 C 
ATOM      5  O   MET A   1      14.317  10.292  18.623  0.00  0.00    -0.287 OA
ENDBRANCH   1   4
BRANCH   1   6
ATOM      6  CB  MET A   1      15.322   7.221  19.452  0.00  0.00    +0.037 C 
BRANCH   6   7
ATOM      7  CG  MET A   1      16.404   6.187  19.112  0.00  0.00    +0.059 C 
BRANCH   7   8
ATOM      8  SD  MET A   1      16.979   6.374  17.461  0.00  0.00    -0.139 S 
ATOM      9  CE  MET A   1      18.533   7.213  17.696  0.00  0.00    +0.069 C 
ENDBRANCH   7   8
ENDBRANCH   6   7
ENDBRANCH   1   6
TORSDOF 5
REMARK  Name = ../refined-set-2016/1j37/1j37_pocket.pdb
REMARK  167 active torsions:
REMARK  status: ('A' for Active; 'I' for Inactive)
REMARK    1  A    between atoms: _1  and  _3
REMARK    2  A    between atoms: _3  and  _4
REMARK    3  A    between atoms: _3  and  _6
REMARK    4  A    between atoms: _6  and  _7
REMARK    5  A    between atoms: _7  and  _8
REMARK    6  A    between atoms: _11  and  _13
REMARK    7  A    between atoms: _13  and  _14
REMARK    8  A    between atoms: _13  and  _16
REMARK    9  A    between atoms: _16  and  _17
REMARK   10  A    between atoms: _22  and  _24
REMARK   11  A    between atoms: _24  and  _25
REMARK   12  A    between atoms: _24  and  _27
REMARK   13  A    between atoms: _27  and  _28
REMARK   14  A    between atoms: _38  and  _40
REMARK   15  A    between atoms: _40  and  _41
REMARK   16  A    between atoms: _40  and  _43
REMARK   17  A    between atoms: _43  and  _44
REMARK   18  A    between atoms: _44  and  _45
REMARK   19  A    between atoms: _50  and  _52
REMARK   20  A    between atoms: _52  and  _53
REMARK   21  A    between atoms: _52  and  _55
REMARK   22  A    between atoms: _55  and  _56
REMARK   23  A    between atoms: _56  and  _57
REMARK   24  A    between atoms: _62  and  _64
REMARK   25  A    between atoms: _64  and  _65
REMARK   26  A    between atoms: _64  and  _67
REMARK   27  A    between atoms: _69  and  _71
REMARK   28  A    between atoms: _71  and  _72
REMARK   29  A    between atoms: _71  and  _74
REMARK   30  A    between atoms: _74  and  _75
REMARK   31  A    between atoms: _80  and  _82
REMARK   32  A    between atoms: _82  and  _83
REMARK   33  A    between atoms: _86  and  _88
REMARK   34  A    between atoms: _88  and  _89
REMARK   35  A    between atoms: _88  and  _91
REMARK   36  A    between atoms: _91  and  _92
REMARK   37  A    between atoms: _94  and  _96
REMARK   38  A    between atoms: _96  and  _97
REMARK   39  A    between atoms: _100  and  _102
REMARK   40  A    between atoms: _102  and  _103
REMARK   41  A    between atoms: _102  and  _105
REMARK   42  A    between atoms: _105  and  _106
REMARK   43  A    between atoms: _106  and  _107
REMARK   44  A    between atoms: _107  and  _108
REMARK   45  A    between atoms: _108  and  _109
REMARK   46  A    between atoms: _113  and  _115
REMARK   47  A    between atoms: _115  and  _116
REMARK   48  A    between atoms: _115  and  _118
REMARK   49  A    between atoms: _118  and  _119
REMARK   50  A    between atoms: _119  and  _120
REMARK   51  A    between atoms: _125  and  _127
REMARK   52  A    between atoms: _127  and  _128
REMARK   53  A    between atoms: _127  and  _130
REMARK   54  A    between atoms: _130  and  _131
REMARK   55  A    between atoms: _134  and  _136
REMARK   56  A    between atoms: _136  and  _137
REMARK   57  A    between atoms: _136  and  _139
REMARK   58  A    between atoms: _139  and  _140
REMARK   59  A    between atoms: _143  and  _145
REMARK   60  A    between atoms: _145  and  _146
REMARK   61  A    between atoms: _145  and  _148
REMARK   62  A    between atoms: _148  and  _149
REMARK   63  A    between atoms: _153  and  ZN_399
REMARK   64  A    between atoms: _154  and  _156
REMARK   65  A    between atoms: _156  and  _157
REMARK   66  A    between atoms: _156  and  _159
REMARK   67  A    between atoms: _159  and  _160
REMARK   68  A    between atoms: _160  and  _161
REMARK   69  A    between atoms: _164  and  _166
REMARK   70  A    between atoms: _166  and  _167
REMARK   71  A    between atoms: _166  and  _169
REMARK   72  A    between atoms: _169  and  _170
REMARK   73  A    between atoms: _174  and  ZN_399
REMARK   74  A    between atoms: _175  and  _177
REMARK   75  A    between atoms: _177  and  _178
REMARK   76  A    between atoms: _177  and  _180
REMARK   77  A    between atoms: _180  and  _181
REMARK   78  A    between atoms: _186  and  _188
REMARK   79  A    between atoms: _188  and  _189
REMARK   80  A    between atoms: _188  and  _191
REMARK   81  A    between atoms: _191  and  _192
REMARK   82  A    between atoms: _192  and  _193
REMARK   83  A    between atoms: _193  and  _194
REMARK   84  A    between atoms: _194  and  ZN_399
REMARK   85  A    between atoms: _196  and  _198
REMARK   86  A    between atoms: _198  and  _199
REMARK   87  A    between atoms: _198  and  _201
REMARK   88  A    between atoms: _201  and  _202
REMARK   89  A    between atoms: _205  and  _207
REMARK   90  A    between atoms: _207  and  _208
REMARK   91  A    between atoms: _207  and  _210
REMARK   92  A    between atoms: _210  and  _211
REMARK   93  A    between atoms: _214  and  _216
REMARK   94  A    between atoms: _216  and  _217
REMARK   95  A    between atoms: _216  and  _219
REMARK   96  A    between atoms: _219  and  _220
REMARK   97  A    between atoms: _220  and  _221
REMARK   98  A    between atoms: _221  and  _222
REMARK   99  A    between atoms: _222  and  _223
REMARK  100  A    between atoms: _227  and  _229
REMARK  101  A    between atoms: _229  and  _230
REMARK  102  A    between atoms: _229  and  _232
REMARK  103  A    between atoms: _232  and  _233
REMARK  104  A    between atoms: _239  and  _241
REMARK  105  A    between atoms: _241  and  _242
REMARK  106  A    between atoms: _241  and  _244
REMARK  107  A    between atoms: _244  and  _245
REMARK  108  A    between atoms: _251  and  _253
REMARK  109  A    between atoms: _253  and  _254
REMARK  110  A    between atoms: _257  and  _259
REMARK  111  A    between atoms: _259  and  _260
REMARK  112  A    between atoms: _259  and  _262
REMARK  113  A    between atoms: _262  and  _263
REMARK  114  A    between atoms: _263  and  _264
REMARK  115  A    between atoms: _266  and  _268
REMARK  116  A    between atoms: _268  and  _269
REMARK  117  A    between atoms: _268  and  _271
REMARK  118  A    between atoms: _271  and  _272
REMARK  119  A    between atoms: _272  and  _273
REMARK  120  A    between atoms: _273  and  _274
REMARK  121  A    between atoms: _274  and  _275
REMARK  122  A    between atoms: _279  and  _281
REMARK  123  A    between atoms: _281  and  _282
REMARK  124  A    between atoms: _281  and  _284
REMARK  125  A    between atoms: _284  and  _285
REMARK  126  A    between atoms: _290  and  _291
REMARK  127  A    between atoms: _293  and  _295
REMARK  128  A    between atoms: _295  and  _296
REMARK  129  A    between atoms: _295  and  _298
REMARK  130  A    between atoms: _298  and  _299
REMARK  131  A    between atoms: _304  and  _306
REMARK  132  A    between atoms: _306  and  _307
REMARK  133  A    between atoms: _306  and  _309
REMARK  134  A    between atoms: _312  and  _314
REMARK  135  A    between atoms: _314  and  _315
REMARK  136  A    between atoms: _314  and  _317
REMARK  137  A    between atoms: _317  and  _318
REMARK  138  A    between atoms: _318  and  _319
REMARK  139  A    between atoms: _322  and  _324
REMARK  140  A    between atoms: _324  and  _325
REMARK  141  A    between atoms: _324  and  _327
REMARK  142  A    between atoms: _327  and  _328
REMARK  143  A    between atoms: _333  and  _334
REMARK  144  A    between atoms: _336  and  _338
REMARK  145  A    between atoms: _338  and  _339
REMARK  146  A    between atoms: _338  and  _341
REMARK  147  A    between atoms: _341  and  _342
REMARK  148  A    between atoms: _342  and  _343
REMARK  149  A    between atoms: _343  and  _344
REMARK  150  A    between atoms: _353  and  _355
REMARK  151  A    between atoms: _355  and  _356
REMARK  152  A    between atoms: _355  and  _358
REMARK  153  A    between atoms: _358  and  _359
REMARK  154  A    between atoms: _364  and  _365
REMARK  155  A    between atoms: _367  and  _369
REMARK  156  A    between atoms: _369  and  _370
REMARK  157  A    between atoms: _369  and  _372
REMARK  158  A    between atoms: _372  and  _373
REMARK  159  A    between atoms: _375  and  _377
REMARK  160  A    between atoms: _377  and  _378
REMARK  161  A    between atoms: _377  and  _380
REMARK  162  A    between atoms: _380  and  _381
REMARK  163  A    between atoms: _387  and  _389
REMARK  164  A    between atoms: _389  and  _390
REMARK  165  A    between atoms: _389  and  _392
REMARK  166  A    between atoms: _392  and  _393
REMARK  167  A    between atoms: _393  and  _394
REMARK                            x       y       z     vdW  Elec       q    Type
REMARK                         _______ _______ _______ _____ _____    ______ ____
ROOT
ATOM      1  CA  TYR A   2      13.906   1.800  10.911  0.00  0.00    +0.153 C 
ENDROOT
BRANCH   1   4
ATOM      2  C   LYS A   1      15.497   3.509  11.613  0.00  0.00    +0.238 C 
ATOM      3  O   LYS A   1      14.674   4.427  11.541  0.00  0.00    -0.274 OA
ATOM      4  N   TYR A   2      15.215   2.245  11.333  0.00  0.00    -0.297 N 
ATOM      5  H   TYR A   2      15.973   1.538  11.421  0.00  0.00    +0.150 HD
BRANCH   2   6
ATOM      6  CA  LYS A   1      16.943   3.765  12.020  0.00  0.00    +0.145 C 
BRANCH   6   7
ATOM      7  N   LYS A   1      17.584   4.505  10.949  0.00  0.00    -0.238 NA
ATOM      8  H   LYS A   1      17.426   5.531  10.890  0.00  0.00    +0.142 HD
ENDBRANCH   6   7
BRANCH   6   9
ATOM      9  CB  LYS A   1      16.991   4.573  13.309  0.00  0.00    +0.026 C 
BRANCH   9  10
ATOM     10  CG  LYS A   1      16.137   4.026  14.442  0.00  0.00    -0.000 C 
BRANCH  10  11
ATOM     11  CD  LYS A   1      16.794   2.897  15.200  0.00  0.00    -0.024 C 
BRANCH  11  12
ATOM     12  CE  LYS A   1      16.524   1.540  14.592  0.00  0.00    -0.086 C 
BRANCH  12  13
ATOM     13  NZ  LYS A   1      16.547   0.492  15.659  0.00  0.00    +0.380 N 
ATOM     14  HZ1 LYS A   1      15.815   0.704  16.367  0.00  0.00    -0.089 HD
ATOM     15  HZ2 LYS A   1      17.481   0.485  16.116  0.00  0.00    -0.089 HD
ATOM     16  HZ3 LYS A   1      16.361  -0.438  15.233  0.00  0.00    -0.089 HD
ENDBRANCH  12  13
ENDBRANCH  11  12
ENDBRANCH  10  11
ENDBRANCH   9  10
ENDBRANCH   6   9
ENDBRANCH   2   6
ENDBRANCH   1   4
BRANCH   1  17
ATOM     17  C   TYR A   2      12.756   2.631  11.454  0.00  0.00    +0.241 C 
ATOM     18  N   HIS A   3      12.661   2.711  12.776  0.00  0.00    -0.298 N 
ATOM     19  H   HIS A   3      13.374   2.228  13.358  0.00  0.00    +0.150 HD
ATOM     20  O   TYR A   2      11.976   3.184  10.689  0.00  0.00    -0.273 OA
BRANCH  18  21
ATOM     21  CA  HIS A   3      11.594   3.451  13.444  0.00  0.00    +0.143 C 
BRANCH  21  22
ATOM     22  C   HIS A   3      11.508   4.931  13.057  0.00  0.00    +0.227 C 
ATOM     23  O   HIS A   3      10.446   5.539  13.160  0.00  0.00    -0.286 OA
ENDBRANCH  21  22
BRANCH  21  24
ATOM     24  CB  HIS A   3      11.743   3.326  14.966  0.00  0.00    +0.075 C 
BRANCH  24  25
ATOM     25  CG  HIS A   3      11.928   1.920  15.437  0.00  0.00    +0.082 A 
ATOM     26  CD2 HIS A   3      11.179   1.146  16.257  0.00  0.00    +0.115 A 
ATOM     27  NE2 HIS A   3      11.791  -0.081  16.329  0.00  0.00    -0.221 NA
ATOM     28  CE1 HIS A   3      12.880  -0.061  15.582  0.00  0.00    +0.199 A 
ATOM     29  ND1 HIS A   3      12.987   1.138  15.035  0.00  0.00    -0.227 NA
ENDBRANCH  24  25
ENDBRANCH  21  24
ENDBRANCH  18  21
ENDBRANCH   1  17
BRANCH   1  30
ATOM     30  CB  TYR A   2      13.718   0.336  11.304  0.00  0.00    +0.055 C 
BRANCH  30  31
ATOM     31  CG  TYR A   2      12.320  -0.159  11.094  0.00  0.00    -0.020 A 
ATOM     32  CD2 TYR A   2      11.493  -0.426  12.185  0.00  0.00    -0.001 A 
ATOM     33  CE2 TYR A   2      10.181  -0.809  12.009  0.00  0.00    +0.036 A 
ATOM     34  CZ  TYR A   2       9.678  -0.939  10.729  0.00  0.00    +0.134 A 
ATOM     35  CE1 TYR A   2      10.467  -0.688   9.622  0.00  0.00    +0.036 A 
ATOM     36  CD1 TYR A   2      11.793  -0.296   9.810  0.00  0.00    -0.001 A 
BRANCH  34  37
ATOM     37  OH  TYR A   2       8.389  -1.339  10.566  0.00  0.00    -0.506 OA
ATOM     38  HH  TYR A   2       8.178  -1.384   9.600  0.00  0.00    +0.292 HD
ENDBRANCH  34  37
ENDBRANCH  30  31
ENDBRANCH   1  30
TORSDOF 16
REMARK  Name = ../refined-set-2016/1j37/1j37_pocket.pdb
REMARK  167 active torsions:
REMARK  status: ('A' for Active; 'I' for Inactive)
REMARK    1  A    between atoms: _1  and  _3
REMARK    2  A    between atoms: _3  and  _4
REMARK    3  A    between atoms: _3  and  _6
REMARK    4  A    between atoms: _6  and  _7
REMARK    5  A    between atoms: _7  and  _8
REMARK    6  A    between atoms: _11  and  _13
REMARK    7  A    between atoms: _13  and  _14
REMARK    8  A    between atoms: _13  and  _16
REMARK    9  A    between atoms: _16  and  _17
REMARK   10  A    between atoms: _22  and  _24
REMARK   11  A    between atoms: _24  and  _25
REMARK   12  A    between atoms: _24  and  _27
REMARK   13  A    between atoms: _27  and  _28
REMARK   14  A    between atoms: _38  and  _40
REMARK   15  A    between atoms: _40  and  _41
REMARK   16  A    between atoms: _40  and  _43
REMARK   17  A    between atoms: _43  and  _44
REMARK   18  A    between atoms: _44  and  _45
REMARK   19  A    between atoms: _50  and  _52
REMARK   20  A    between atoms: _52  and  _53
REMARK   21  A    between atoms: _52  and  _55
REMARK   22  A    between atoms: _55  and  _56
REMARK   23  A    between atoms: _56  and  _57
REMARK   24  A    between atoms: _62  and  _64
REMARK   25  A    between atoms: _64  and  _65
REMARK   26  A    between atoms: _64  and  _67
REMARK   27  A    between atoms: _69  and  _71
REMARK   28  A    between atoms: _71  and  _72
REMARK   29  A    between atoms: _71  and  _74
REMARK   30  A    between atoms: _74  and  _75
REMARK   31  A    between atoms: _80  and  _82
REMARK   32  A    between atoms: _82  and  _83
REMARK   33  A    between atoms: _86  and  _88
REMARK   34  A    between atoms: _88  and  _89
REMARK   35  A    between atoms: _88  and  _91
REMARK   36  A    between atoms: _91  and  _92
REMARK   37  A    between atoms: _94  and  _96
REMARK   38  A    between atoms: _96  and  _97
REMARK   39  A    between atoms: _100  and  _102
REMARK   40  A    between atoms: _102  and  _103
REMARK   41  A    between atoms: _102  and  _105
REMARK   42  A    between atoms: _105  and  _106
REMARK   43  A    between atoms: _106  and  _107
REMARK   44  A    between atoms: _107  and  _108
REMARK   45  A    between atoms: _108  and  _109
REMARK   46  A    between atoms: _113  and  _115
REMARK   47  A    between atoms: _115  and  _116
REMARK   48  A    between atoms: _115  and  _118
REMARK   49  A    between atoms: _118  and  _119
REMARK   50  A    between atoms: _119  and  _120
REMARK   51  A    between atoms: _125  and  _127
REMARK   52  A    between atoms: _127  and  _128
REMARK   53  A    between atoms: _127  and  _130
REMARK   54  A    between atoms: _130  and  _131
REMARK   55  A    between atoms: _134  and  _136
REMARK   56  A    between atoms: _136  and  _137
REMARK   57  A    between atoms: _136  and  _139
REMARK   58  A    between atoms: _139  and  _140
REMARK   59  A    between atoms: _143  and  _145
REMARK   60  A    between atoms: _145  and  _146
REMARK   61  A    between atoms: _145  and  _148
REMARK   62  A    between atoms: _148  and  _149
REMARK   63  A    between atoms: _153  and  ZN_399
REMARK   64  A    between atoms: _154  and  _156
REMARK   65  A    between atoms: _156  and  _157
REMARK   66  A    between atoms: _156  and  _159
REMARK   67  A    between atoms: _159  and  _160
REMARK   68  A    between atoms: _160  and  _161
REMARK   69  A    between atoms: _164  and  _166
REMARK   70  A    between atoms: _166  and  _167
REMARK   71  A    between atoms: _166  and  _169
REMARK   72  A    between atoms: _169  and  _170
REMARK   73  A    between atoms: _174  and  ZN_399
REMARK   74  A    between atoms: _175  and  _177
REMARK   75  A    between atoms: _177  and  _178
REMARK   76  A    between atoms: _177  and  _180
REMARK   77  A    between atoms: _180  and  _181
REMARK   78  A    between atoms: _186  and  _188
REMARK   79  A    between atoms: _188  and  _189
REMARK   80  A    between atoms: _188  and  _191
REMARK   81  A    between atoms: _191  and  _192
REMARK   82  A    between atoms: _192  and  _193
REMARK   83  A    between atoms: _193  and  _194
REMARK   84  A    between atoms: _194  and  ZN_399
REMARK   85  A    between atoms: _196  and  _198
REMARK   86  A    between atoms: _198  and  _199
REMARK   87  A    between atoms: _198  and  _201
REMARK   88  A    between atoms: _201  and  _202
REMARK   89  A    between atoms: _205  and  _207
REMARK   90  A    between atoms: _207  and  _208
REMARK   91  A    between atoms: _207  and  _210
REMARK   92  A    between atoms: _210  and  _211
REMARK   93  A    between atoms: _214  and  _216
REMARK   94  A    between atoms: _216  and  _217
REMARK   95  A    between atoms: _216  and  _219
REMARK   96  A    between atoms: _219  and  _220
REMARK   97  A    between atoms: _220  and  _221
REMARK   98  A    between atoms: _221  and  _222
REMARK   99  A    between atoms: _222  and  _223
REMARK  100  A    between atoms: _227  and  _229
REMARK  101  A    between atoms: _229  and  _230
REMARK  102  A    between atoms: _229  and  _232
REMARK  103  A    between atoms: _232  and  _233
REMARK  104  A    between atoms: _239  and  _241
REMARK  105  A    between atoms: _241  and  _242
REMARK  106  A    between atoms: _241  and  _244
REMARK  107  A    between atoms: _244  and  _245
REMARK  108  A    between atoms: _251  and  _253
REMARK  109  A    between atoms: _253  and  _254
REMARK  110  A    between atoms: _257  and  _259
REMARK  111  A    between atoms: _259  and  _260
REMARK  112  A    between atoms: _259  and  _262
REMARK  113  A    between atoms: _262  and  _263
REMARK  114  A    between atoms: _263  and  _264
REMARK  115  A    between atoms: _266  and  _268
REMARK  116  A    between atoms: _268  and  _269
REMARK  117  A    between atoms: _268  and  _271
REMARK  118  A    between atoms: _271  and  _272
REMARK  119  A    between atoms: _272  and  _273
REMARK  120  A    between atoms: _273  and  _274
REMARK  121  A    between atoms: _274  and  _275
REMARK  122  A    between atoms: _279  and  _281
REMARK  123  A    between atoms: _281  and  _282
REMARK  124  A    between atoms: _281  and  _284
REMARK  125  A    between atoms: _284  and  _285
REMARK  126  A    between atoms: _290  and  _291
REMARK  127  A    between atoms: _293  and  _295
REMARK  128  A    between atoms: _295  and  _296
REMARK  129  A    between atoms: _295  and  _298
REMARK  130  A    between atoms: _298  and  _299
REMARK  131  A    between atoms: _304  and  _306
REMARK  132  A    between atoms: _306  and  _307
REMARK  133  A    between atoms: _306  and  _309
REMARK  134  A    between atoms: _312  and  _314
REMARK  135  A    between atoms: _314  and  _315
REMARK  136  A    between atoms: _314  and  _317
REMARK  137  A    between atoms: _317  and  _318
REMARK  138  A    between atoms: _318  and  _319
REMARK  139  A    between atoms: _322  and  _324
REMARK  140  A    between atoms: _324  and  _325
REMARK  141  A    between atoms: _324  and  _327
REMARK  142  A    between atoms: _327  and  _328
REMARK  143  A    between atoms: _333  and  _334
REMARK  144  A    between atoms: _336  and  _338
REMARK  145  A    between atoms: _338  and  _339
REMARK  146  A    between atoms: _338  and  _341
REMARK  147  A    between atoms: _341  and  _342
REMARK  148  A    between atoms: _342  and  _343
REMARK  149  A    between atoms: _343  and  _344
REMARK  150  A    between atoms: _353  and  _355
REMARK  151  A    between atoms: _355  and  _356
REMARK  152  A    between atoms: _355  and  _358
REMARK  153  A    between atoms: _358  and  _359
REMARK  154  A    between atoms: _364  and  _365
REMARK  155  A    between atoms: _367  and  _369
REMARK  156  A    between atoms: _369  and  _370
REMARK  157  A    between atoms: _369  and  _372
REMARK  158  A    between atoms: _372  and  _373
REMARK  159  A    between atoms: _375  and  _377
REMARK  160  A    between atoms: _377  and  _378
REMARK  161  A    between atoms: _377  and  _380
REMARK  162  A    between atoms: _380  and  _381
REMARK  163  A    between atoms: _387  and  _389
REMARK  164  A    between atoms: _389  and  _390
REMARK  165  A    between atoms: _389  and  _392
REMARK  166  A    between atoms: _392  and  _393
REMARK  167  A    between atoms: _393  and  _394
REMARK                            x       y       z     vdW  Elec       q    Type
REMARK                         _______ _______ _______ _____ _____    ______ ____
ROOT
ATOM      1  CA  GLU A   2       7.476   6.150  18.556  0.00  0.00    +0.149 C 
ENDROOT
BRANCH   1   3
ATOM      2  C   VAL A   1       7.855   5.027  16.420  0.00  0.00    +0.238 C 
ATOM      3  N   GLU A   2       7.022   5.563  17.302  0.00  0.00    -0.297 N 
ATOM      4  H   GLU A   2       6.004   5.564  17.090  0.00  0.00    +0.150 HD
ATOM      5  O   VAL A   1       9.079   4.982  16.590  0.00  0.00    -0.274 OA
BRANCH   2   6
ATOM      6  CA  VAL A   1       7.191   4.471  15.158  0.00  0.00    +0.145 C 
BRANCH   6   7
ATOM      7  CB  VAL A   1       7.539   2.976  15.006  0.00  0.00    +0.025 C 
ATOM      8  CG2 VAL A   1       7.181   2.232  16.275  0.00  0.00    +0.002 C 
ATOM      9  CG1 VAL A   1       6.793   2.387  13.825  0.00  0.00    +0.002 C 
ENDBRANCH   6   7
BRANCH   6  10
ATOM     10  N   VAL A   1       7.608   5.247  13.997  0.00  0.00    -0.238 NA
ATOM     11  H   VAL A   1       8.622   5.371  13.800  0.00  0.00    +0.142 HD
ENDBRANCH   6  10
ENDBRANCH   2   6
ENDBRANCH   1   3
BRANCH   1  12
ATOM     12  C   GLU A   2       8.466   5.191  19.227  0.00  0.00    +0.241 C 
ATOM     13  N   TYR A   3       9.545   5.744  19.769  0.00  0.00    -0.298 N 
ATOM     14  H   TYR A   3       9.630   6.780  19.754  0.00  0.00    +0.150 HD
ATOM     15  O   GLU A   2       8.240   3.989  19.268  0.00  0.00    -0.273 OA
BRANCH  13  16
ATOM     16  CA  TYR A   3      10.616   4.968  20.384  0.00  0.00    +0.141 C 
BRANCH  16  17
ATOM     17  C   TYR A   3      10.715   4.974  21.923  0.00  0.00    +0.227 C 
ATOM     18  O   TYR A   3      11.392   4.124  22.510  0.00  0.00    -0.286 OA
ENDBRANCH  16  17
BRANCH  16  19
ATOM     19  CB  TYR A   3      11.956   5.429  19.790  0.00  0.00    +0.054 C 
BRANCH  19  20
ATOM     20  CG  TYR A   3      12.944   4.309  19.676  0.00  0.00    -0.020 A 
ATOM     21  CD2 TYR A   3      13.812   4.006  20.733  0.00  0.00    -0.001 A 
ATOM     22  CE2 TYR A   3      14.622   2.858  20.688  0.00  0.00    +0.036 A 
ATOM     23  CZ  TYR A   3      14.549   2.024  19.565  0.00  0.00    +0.134 A 
ATOM     24  CE1 TYR A   3      13.702   2.334  18.503  0.00  0.00    +0.036 A 
ATOM     25  CD1 TYR A   3      12.914   3.461  18.567  0.00  0.00    -0.001 A 
BRANCH  23  26
ATOM     26  OH  TYR A   3      15.265   0.864  19.492  0.00  0.00    -0.506 OA
ATOM     27  HH  TYR A   3      15.081   0.418  18.628  0.00  0.00    +0.292 HD
ENDBRANCH  23  26
ENDBRANCH  19  20
ENDBRANCH  16  19
ENDBRANCH  13  16
ENDBRANCH   1  12
BRANCH   1  28
ATOM     28  CB  GLU A   2       6.257   6.408  19.438  0.00  0.00    +0.041 C 
BRANCH  28  29
ATOM     29  CG  GLU A   2       6.545   7.166  20.673  0.00  0.00    +0.116 C 
BRANCH  29  30
ATOM     30  CD  GLU A   2       6.111   6.400  21.876  0.00  0.00    +0.365 C 
ATOM     31  OE2 GLU A   2       5.288   6.921  22.675  0.00  0.00    -0.246 OA
ATOM     32  OE1 GLU A   2       6.597   5.256  22.004  0.00  0.00    -0.246 OA
ENDBRANCH  29  30
ENDBRANCH  28  29
ENDBRANCH   1  28
TORSDOF 13
REMARK  Name = ../refined-set-2016/1j37/1j37_pocket.pdb
REMARK  167 active torsions:
REMARK  status: ('A' for Active; 'I' for Inactive)
REMARK    1  A    between atoms: _1  and  _3
REMARK    2  A    between atoms: _3  and  _4
REMARK    3  A    between atoms: _3  and  _6
REMARK    4  A    between atoms: _6  and  _7
REMARK    5  A    between atoms: _7  and  _8
REMARK    6  A    between atoms: _11  and  _13
REMARK    7  A    between atoms: _13  and  _14
REMARK    8  A    between atoms: _13  and  _16
REMARK    9  A    between atoms: _16  and  _17
REMARK   10  A    between atoms: _22  and  _24
REMARK   11  A    between atoms: _24  and  _25
REMARK   12  A    between atoms: _24  and  _27
REMARK   13  A    between atoms: _27  and  _28
REMARK   14  A    between atoms: _38  and  _40
REMARK   15  A    between atoms: _40  and  _41
REMARK   16  A    between atoms: _40  and  _43
REMARK   17  A    between atoms: _43  and  _44
REMARK   18  A    between atoms: _44  and  _45
REMARK   19  A    between atoms: _50  and  _52
REMARK   20  A    between atoms: _52  and  _53
REMARK   21  A    between atoms: _52  and  _55
REMARK   22  A    between atoms: _55  and  _56
REMARK   23  A    between atoms: _56  and  _57
REMARK   24  A    between atoms: _62  and  _64
REMARK   25  A    between atoms: _64  and  _65
REMARK   26  A    between atoms: _64  and  _67
REMARK   27  A    between atoms: _69  and  _71
REMARK   28  A    between atoms: _71  and  _72
REMARK   29  A    between atoms: _71  and  _74
REMARK   30  A    between atoms: _74  and  _75
REMARK   31  A    between atoms: _80  and  _82
REMARK   32  A    between atoms: _82  and  _83
REMARK   33  A    between atoms: _86  and  _88
REMARK   34  A    between atoms: _88  and  _89
REMARK   35  A    between atoms: _88  and  _91
REMARK   36  A    between atoms: _91  and  _92
REMARK   37  A    between atoms: _94  and  _96
REMARK   38  A    between atoms: _96  and  _97
REMARK   39  A    between atoms: _100  and  _102
REMARK   40  A    between atoms: _102  and  _103
REMARK   41  A    between atoms: _102  and  _105
REMARK   42  A    between atoms: _105  and  _106
REMARK   43  A    between atoms: _106  and  _107
REMARK   44  A    between atoms: _107  and  _108
REMARK   45  A    between atoms: _108  and  _109
REMARK   46  A    between atoms: _113  and  _115
REMARK   47  A    between atoms: _115  and  _116
REMARK   48  A    between atoms: _115  and  _118
REMARK   49  A    between atoms: _118  and  _119
REMARK   50  A    between atoms: _119  and  _120
REMARK   51  A    between atoms: _125  and  _127
REMARK   52  A    between atoms: _127  and  _128
REMARK   53  A    between atoms: _127  and  _130
REMARK   54  A    between atoms: _130  and  _131
REMARK   55  A    between atoms: _134  and  _136
REMARK   56  A    between atoms: _136  and  _137
REMARK   57  A    between atoms: _136  and  _139
REMARK   58  A    between atoms: _139  and  _140
REMARK   59  A    between atoms: _143  and  _145
REMARK   60  A    between atoms: _145  and  _146
REMARK   61  A    between atoms: _145  and  _148
REMARK   62  A    between atoms: _148  and  _149
REMARK   63  A    between atoms: _153  and  ZN_399
REMARK   64  A    between atoms: _154  and  _156
REMARK   65  A    between atoms: _156  and  _157
REMARK   66  A    between atoms: _156  and  _159
REMARK   67  A    between atoms: _159  and  _160
REMARK   68  A    between atoms: _160  and  _161
REMARK   69  A    between atoms: _164  and  _166
REMARK   70  A    between atoms: _166  and  _167
REMARK   71  A    between atoms: _166  and  _169
REMARK   72  A    between atoms: _169  and  _170
REMARK   73  A    between atoms: _174  and  ZN_399
REMARK   74  A    between atoms: _175  and  _177
REMARK   75  A    between atoms: _177  and  _178
REMARK   76  A    between atoms: _177  and  _180
REMARK   77  A    between atoms: _180  and  _181
REMARK   78  A    between atoms: _186  and  _188
REMARK   79  A    between atoms: _188  and  _189
REMARK   80  A    between atoms: _188  and  _191
REMARK   81  A    between atoms: _191  and  _192
REMARK   82  A    between atoms: _192  and  _193
REMARK   83  A    between atoms: _193  and  _194
REMARK   84  A    between atoms: _194  and  ZN_399
REMARK   85  A    between atoms: _196  and  _198
REMARK   86  A    between atoms: _198  and  _199
REMARK   87  A    between atoms: _198  and  _201
REMARK   88  A    between atoms: _201  and  _202
REMARK   89  A    between atoms: _205  and  _207
REMARK   90  A    between atoms: _207  and  _208
REMARK   91  A    between atoms: _207  and  _210
REMARK   92  A    between atoms: _210  and  _211
REMARK   93  A    between atoms: _214  and  _216
REMARK   94  A    between atoms: _216  and  _217
REMARK   95  A    between atoms: _216  and  _219
REMARK   96  A    between atoms: _219  and  _220
REMARK   97  A    between atoms: _220  and  _221
REMARK   98  A    between atoms: _221  and  _222
REMARK   99  A    between atoms: _222  and  _223
REMARK  100  A    between atoms: _227  and  _229
REMARK  101  A    between atoms: _229  and  _230
REMARK  102  A    between atoms: _229  and  _232
REMARK  103  A    between atoms: _232  and  _233
REMARK  104  A    between atoms: _239  and  _241
REMARK  105  A    between atoms: _241  and  _242
REMARK  106  A    between atoms: _241  and  _244
REMARK  107  A    between atoms: _244  and  _245
REMARK  108  A    between atoms: _251  and  _253
REMARK  109  A    between atoms: _253  and  _254
REMARK  110  A    between atoms: _257  and  _259
REMARK  111  A    between atoms: _259  and  _260
REMARK  112  A    between atoms: _259  and  _262
REMARK  113  A    between atoms: _262  and  _263
REMARK  114  A    between atoms: _263  and  _264
REMARK  115  A    between atoms: _266  and  _268
REMARK  116  A    between atoms: _268  and  _269
REMARK  117  A    between atoms: _268  and  _271
REMARK  118  A    between atoms: _271  and  _272
REMARK  119  A    between atoms: _272  and  _273
REMARK  120  A    between atoms: _273  and  _274
REMARK  121  A    between atoms: _274  and  _275
REMARK  122  A    between atoms: _279  and  _281
REMARK  123  A    between atoms: _281  and  _282
REMARK  124  A    between atoms: _281  and  _284
REMARK  125  A    between atoms: _284  and  _285
REMARK  126  A    between atoms: _290  and  _291
REMARK  127  A    between atoms: _293  and  _295
REMARK  128  A    between atoms: _295  and  _296
REMARK  129  A    between atoms: _295  and  _298
REMARK  130  A    between atoms: _298  and  _299
REMARK  131  A    between atoms: _304  and  _306
REMARK  132  A    between atoms: _306  and  _307
REMARK  133  A    between atoms: _306  and  _309
REMARK  134  A    between atoms: _312  and  _314
REMARK  135  A    between atoms: _314  and  _315
REMARK  136  A    between atoms: _314  and  _317
REMARK  137  A    between atoms: _317  and  _318
REMARK  138  A    between atoms: _318  and  _319
REMARK  139  A    between atoms: _322  and  _324
REMARK  140  A    between atoms: _324  and  _325
REMARK  141  A    between atoms: _324  and  _327
REMARK  142  A    between atoms: _327  and  _328
REMARK  143  A    between atoms: _333  and  _334
REMARK  144  A    between atoms: _336  and  _338
REMARK  145  A    between atoms: _338  and  _339
REMARK  146  A    between atoms: _338  and  _341
REMARK  147  A    between atoms: _341  and  _342
REMARK  148  A    between atoms: _342  and  _343
REMARK  149  A    between atoms: _343  and  _344
REMARK  150  A    between atoms: _353  and  _355
REMARK  151  A    between atoms: _355  and  _356
REMARK  152  A    between atoms: _355  and  _358
REMARK  153  A    between atoms: _358  and  _359
REMARK  154  A    between atoms: _364  and  _365
REMARK  155  A    between atoms: _367  and  _369
REMARK  156  A    between atoms: _369  and  _370
REMARK  157  A    between atoms: _369  and  _372
REMARK  158  A    between atoms: _372  and  _373
REMARK  159  A    between atoms: _375  and  _377
REMARK  160  A    between atoms: _377  and  _378
REMARK  161  A    between atoms: _377  and  _380
REMARK  162  A    between atoms: _380  and  _381
REMARK  163  A    between atoms: _387  and  _389
REMARK  164  A    between atoms: _389  and  _390
REMARK  165  A    between atoms: _389  and  _392
REMARK  166  A    between atoms: _392  and  _393
REMARK  167  A    between atoms: _393  and  _394
REMARK                            x       y       z     vdW  Elec       q    Type
REMARK                         _______ _______ _______ _____ _____    ______ ____
ROOT
ATOM      1  C   ARG A   1       9.203   1.781  24.746  0.00  0.00    +0.000 C 
ATOM      2  O   ARG A   1       8.995   0.953  25.606  0.00  0.00    +0.000 OA
ATOM      3  N   TYR A   2      10.367   1.869  24.116  0.00  0.00    +0.000 N 
ATOM      4  H   TYR A   2      10.522   2.611  23.404  0.00  0.00    +0.000 HD
ENDROOT
BRANCH   1   5
ATOM      5  CA  ARG A   1       8.118   2.778  24.369  0.00  0.00    +0.000 C 
BRANCH   5   6
ATOM      6  N   ARG A   1       8.713   4.017  23.894  0.00  0.00    +0.000 NA
ATOM      7  H   ARG A   1       8.487   4.355  22.937  0.00  0.00    +0.000 HD
ENDBRANCH   5   6
BRANCH   5   8
ATOM      8  CB  ARG A   1       7.215   2.162  23.293  0.00  0.00    +0.000 C 
BRANCH   8   9
ATOM      9  CG  ARG A   1       7.962   1.760  22.023  0.00  0.00    +0.000 C 
BRANCH   9  10
ATOM     10  CD  ARG A   1       7.030   1.279  20.936  0.00  0.00    +0.000 C 
BRANCH  10  11
ATOM     11  NE  ARG A   1       6.007   2.270  20.618  0.00  0.00    +0.330 N 
ATOM     12  HE  ARG A   1       5.979   3.141  21.185  0.00  0.00    +0.000 HD
ATOM     13  CZ  ARG A   1       5.106   2.128  19.645  0.00  0.00    +0.000 C 
ATOM     14  NH2 ARG A   1       4.180   3.052  19.448  0.00  0.00    +0.330 N 
ATOM     15 HH21 ARG A   1       4.151   3.897  20.054  0.00  0.00    +0.000 HD
ATOM     16 HH22 ARG A   1       3.481   2.934  18.687  0.00  0.00    +0.000 HD
ATOM     17  NH1 ARG A   1       5.108   1.043  18.885  0.00  0.00    +0.330 N 
ATOM     18 HH11 ARG A   1       5.814   0.297  19.046  0.00  0.00    +0.000 HD
ATOM     19 HH12 ARG A   1       4.403   0.937  18.128  0.00  0.00    +0.000 HD
ENDBRANCH  10  11
ENDBRANCH   9  10
ENDBRANCH   8   9
ENDBRANCH   5   8
ENDBRANCH   1   5
BRANCH   3  20
ATOM     20  CA  TYR A   2      11.424   0.921  24.429  0.00  0.00    +0.000 C 
BRANCH  20  21
ATOM     21  C   TYR A   2      12.145   1.283  25.702  0.00  0.00    +0.000 C 
ATOM     22  O   TYR A   2      12.463   0.401  26.524  0.00  0.00    +0.000 OA
ENDBRANCH  20  21
BRANCH  20  23
ATOM     23  CB  TYR A   2      12.410   0.827  23.278  0.00  0.00    +0.000 C 
BRANCH  23  24
ATOM     24  CG  TYR A   2      11.756   0.355  22.018  0.00  0.00    +0.000 A 
ATOM     25  CD2 TYR A   2      11.372  -0.970  21.867  0.00  0.00    +0.000 A 
ATOM     26  CE2 TYR A   2      10.666  -1.392  20.725  0.00  0.00    +0.000 A 
ATOM     27  CZ  TYR A   2      10.346  -0.461  19.739  0.00  0.00    +0.000 A 
ATOM     28  CE1 TYR A   2      10.733   0.863  19.882  0.00  0.00    +0.000 A 
ATOM     29  CD1 TYR A   2      11.435   1.256  21.014  0.00  0.00    +0.000 A 
BRANCH  27  30
ATOM     30  OH  TYR A   2       9.626  -0.822  18.628  0.00  0.00    +0.000 OA
ATOM     31  HH  TYR A   2      10.156  -0.626  17.815  0.00  0.00    +0.000 HD
ENDBRANCH  27  30
ENDBRANCH  23  24
ENDBRANCH  20  23
ENDBRANCH   3  20
TORSDOF 11
REMARK  Name = ../refined-set-2016/1j37/1j37_pocket.pdb
REMARK  167 active torsions:
REMARK  status: ('A' for Active; 'I' for Inactive)
REMARK    1  A    between atoms: _1  and  _3
REMARK    2  A    between atoms: _3  and  _4
REMARK    3  A    between atoms: _3  and  _6
REMARK    4  A    between atoms: _6  and  _7
REMARK    5  A    between atoms: _7  and  _8
REMARK    6  A    between atoms: _11  and  _13
REMARK    7  A    between atoms: _13  and  _14
REMARK    8  A    between atoms: _13  and  _16
REMARK    9  A    between atoms: _16  and  _17
REMARK   10  A    between atoms: _22  and  _24
REMARK   11  A    between atoms: _24  and  _25
REMARK   12  A    between atoms: _24  and  _27
REMARK   13  A    between atoms: _27  and  _28
REMARK   14  A    between atoms: _38  and  _40
REMARK   15  A    between atoms: _40  and  _41
REMARK   16  A    between atoms: _40  and  _43
REMARK   17  A    between atoms: _43  and  _44
REMARK   18  A    between atoms: _44  and  _45
REMARK   19  A    between atoms: _50  and  _52
REMARK   20  A    between atoms: _52  and  _53
REMARK   21  A    between atoms: _52  and  _55
REMARK   22  A    between atoms: _55  and  _56
REMARK   23  A    between atoms: _56  and  _57
REMARK   24  A    between atoms: _62  and  _64
REMARK   25  A    between atoms: _64  and  _65
REMARK   26  A    between atoms: _64  and  _67
REMARK   27  A    between atoms: _69  and  _71
REMARK   28  A    between atoms: _71  and  _72
REMARK   29  A    between atoms: _71  and  _74
REMARK   30  A    between atoms: _74  and  _75
REMARK   31  A    between atoms: _80  and  _82
REMARK   32  A    between atoms: _82  and  _83
REMARK   33  A    between atoms: _86  and  _88
REMARK   34  A    between atoms: _88  and  _89
REMARK   35  A    between atoms: _88  and  _91
REMARK   36  A    between atoms: _91  and  _92
REMARK   37  A    between atoms: _94  and  _96
REMARK   38  A    between atoms: _96  and  _97
REMARK   39  A    between atoms: _100  and  _102
REMARK   40  A    between atoms: _102  and  _103
REMARK   41  A    between atoms: _102  and  _105
REMARK   42  A    between atoms: _105  and  _106
REMARK   43  A    between atoms: _106  and  _107
REMARK   44  A    between atoms: _107  and  _108
REMARK   45  A    between atoms: _108  and  _109
REMARK   46  A    between atoms: _113  and  _115
REMARK   47  A    between atoms: _115  and  _116
REMARK   48  A    between atoms: _115  and  _118
REMARK   49  A    between atoms: _118  and  _119
REMARK   50  A    between atoms: _119  and  _120
REMARK   51  A    between atoms: _125  and  _127
REMARK   52  A    between atoms: _127  and  _128
REMARK   53  A    between atoms: _127  and  _130
REMARK   54  A    between atoms: _130  and  _131
REMARK   55  A    between atoms: _134  and  _136
REMARK   56  A    between atoms: _136  and  _137
REMARK   57  A    between atoms: _136  and  _139
REMARK   58  A    between atoms: _139  and  _140
REMARK   59  A    between atoms: _143  and  _145
REMARK   60  A    between atoms: _145  and  _146
REMARK   61  A    between atoms: _145  and  _148
REMARK   62  A    between atoms: _148  and  _149
REMARK   63  A    between atoms: _153  and  ZN_399
REMARK   64  A    between atoms: _154  and  _156
REMARK   65  A    between atoms: _156  and  _157
REMARK   66  A    between atoms: _156  and  _159
REMARK   67  A    between atoms: _159  and  _160
REMARK   68  A    between atoms: _160  and  _161
REMARK   69  A    between atoms: _164  and  _166
REMARK   70  A    between atoms: _166  and  _167
REMARK   71  A    between atoms: _166  and  _169
REMARK   72  A    between atoms: _169  and  _170
REMARK   73  A    between atoms: _174  and  ZN_399
REMARK   74  A    between atoms: _175  and  _177
REMARK   75  A    between atoms: _177  and  _178
REMARK   76  A    between atoms: _177  and  _180
REMARK   77  A    between atoms: _180  and  _181
REMARK   78  A    between atoms: _186  and  _188
REMARK   79  A    between atoms: _188  and  _189
REMARK   80  A    between atoms: _188  and  _191
REMARK   81  A    between atoms: _191  and  _192
REMARK   82  A    between atoms: _192  and  _193
REMARK   83  A    between atoms: _193  and  _194
REMARK   84  A    between atoms: _194  and  ZN_399
REMARK   85  A    between atoms: _196  and  _198
REMARK   86  A    between atoms: _198  and  _199
REMARK   87  A    between atoms: _198  and  _201
REMARK   88  A    between atoms: _201  and  _202
REMARK   89  A    between atoms: _205  and  _207
REMARK   90  A    between atoms: _207  and  _208
REMARK   91  A    between atoms: _207  and  _210
REMARK   92  A    between atoms: _210  and  _211
REMARK   93  A    between atoms: _214  and  _216
REMARK   94  A    between atoms: _216  and  _217
REMARK   95  A    between atoms: _216  and  _219
REMARK   96  A    between atoms: _219  and  _220
REMARK   97  A    between atoms: _220  and  _221
REMARK   98  A    between atoms: _221  and  _222
REMARK   99  A    between atoms: _222  and  _223
REMARK  100  A    between atoms: _227  and  _229
REMARK  101  A    between atoms: _229  and  _230
REMARK  102  A    between atoms: _229  and  _232
REMARK  103  A    between atoms: _232  and  _233
REMARK  104  A    between atoms: _239  and  _241
REMARK  105  A    between atoms: _241  and  _242
REMARK  106  A    between atoms: _241  and  _244
REMARK  107  A    between atoms: _244  and  _245
REMARK  108  A    between atoms: _251  and  _253
REMARK  109  A    between atoms: _253  and  _254
REMARK  110  A    between atoms: _257  and  _259
REMARK  111  A    between atoms: _259  and  _260
REMARK  112  A    between atoms: _259  and  _262
REMARK  113  A    between atoms: _262  and  _263
REMARK  114  A    between atoms: _263  and  _264
REMARK  115  A    between atoms: _266  and  _268
REMARK  116  A    between atoms: _268  and  _269
REMARK  117  A    between atoms: _268  and  _271
REMARK  118  A    between atoms: _271  and  _272
REMARK  119  A    between atoms: _272  and  _273
REMARK  120  A    between atoms: _273  and  _274
REMARK  121  A    between atoms: _274  and  _275
REMARK  122  A    between atoms: _279  and  _281
REMARK  123  A    between atoms: _281  and  _282
REMARK  124  A    between atoms: _281  and  _284
REMARK  125  A    between atoms: _284  and  _285
REMARK  126  A    between atoms: _290  and  _291
REMARK  127  A    between atoms: _293  and  _295
REMARK  128  A    between atoms: _295  and  _296
REMARK  129  A    between atoms: _295  and  _298
REMARK  130  A    between atoms: _298  and  _299
REMARK  131  A    between atoms: _304  and  _306
REMARK  132  A    between atoms: _306  and  _307
REMARK  133  A    between atoms: _306  and  _309
REMARK  134  A    between atoms: _312  and  _314
REMARK  135  A    between atoms: _314  and  _315
REMARK  136  A    between atoms: _314  and  _317
REMARK  137  A    between atoms: _317  and  _318
REMARK  138  A    between atoms: _318  and  _319
REMARK  139  A    between atoms: _322  and  _324
REMARK  140  A    between atoms: _324  and  _325
REMARK  141  A    between atoms: _324  and  _327
REMARK  142  A    between atoms: _327  and  _328
REMARK  143  A    between atoms: _333  and  _334
REMARK  144  A    between atoms: _336  and  _338
REMARK  145  A    between atoms: _338  and  _339
REMARK  146  A    between atoms: _338  and  _341
REMARK  147  A    between atoms: _341  and  _342
REMARK  148  A    between atoms: _342  and  _343
REMARK  149  A    between atoms: _343  and  _344
REMARK  150  A    between atoms: _353  and  _355
REMARK  151  A    between atoms: _355  and  _356
REMARK  152  A    between atoms: _355  and  _358
REMARK  153  A    between atoms: _358  and  _359
REMARK  154  A    between atoms: _364  and  _365
REMARK  155  A    between atoms: _367  and  _369
REMARK  156  A    between atoms: _369  and  _370
REMARK  157  A    between atoms: _369  and  _372
REMARK  158  A    between atoms: _372  and  _373
REMARK  159  A    between atoms: _375  and  _377
REMARK  160  A    between atoms: _377  and  _378
REMARK  161  A    between atoms: _377  and  _380
REMARK  162  A    between atoms: _380  and  _381
REMARK  163  A    between atoms: _387  and  _389
REMARK  164  A    between atoms: _389  and  _390
REMARK  165  A    between atoms: _389  and  _392
REMARK  166  A    between atoms: _392  and  _393
REMARK  167  A    between atoms: _393  and  _394
REMARK                            x       y       z     vdW  Elec       q    Type
REMARK                         _______ _______ _______ _____ _____    ______ ____
ROOT
ATOM      1  C   SER A   1      11.340  -1.669  29.316  0.00  0.00    +0.000 C 
ATOM      2  O   SER A   1      11.239  -2.389  30.303  0.00  0.00    +0.000 OA
ATOM      3  N   PHE A   2      12.521  -1.291  28.851  0.00  0.00    +0.000 N 
ATOM      4  H   PHE A   2      12.578  -0.666  28.022  0.00  0.00    +0.000 HD
ENDROOT
BRANCH   1   5
ATOM      5  CA  SER A   1      10.090  -1.150  28.579  0.00  0.00    +0.000 C 
BRANCH   5   6
ATOM      6  N   SER A   1      10.087   0.295  28.464  0.00  0.00    +0.000 NA
ATOM      7  H   SER A   1      10.122   0.732  27.521  0.00  0.00    +0.000 HD
ENDBRANCH   5   6
BRANCH   5   8
ATOM      8  CB  SER A   1      10.008  -1.782  27.195  0.00  0.00    +0.000 C 
BRANCH   8   9
ATOM      9  OG  SER A   1      10.331  -3.152  27.267  0.00  0.00    +0.000 OA
ATOM     10  H   SER A   1      11.251  -3.255  27.617  0.00  0.00    +0.000 HD
ENDBRANCH   8   9
ENDBRANCH   5   8
ENDBRANCH   1   5
BRANCH   3  11
ATOM     11  CA  PHE A   2      13.743  -1.753  29.503  0.00  0.00    +0.000 C 
BRANCH  11  12
ATOM     12  C   PHE A   2      13.808  -1.438  30.995  0.00  0.00    +0.000 C 
ATOM     13  O   PHE A   2      14.571  -2.061  31.724  0.00  0.00    +0.000 OA
ENDBRANCH  11  12
BRANCH  11  14
ATOM     14  CB  PHE A   2      14.987  -1.202  28.782  0.00  0.00    +0.000 C 
BRANCH  14  15
ATOM     15  CG  PHE A   2      15.304  -1.919  27.507  0.00  0.00    +0.000 A 
ATOM     16  CD2 PHE A   2      16.583  -2.376  27.256  0.00  0.00    +0.000 A 
ATOM     17  CE2 PHE A   2      16.885  -3.080  26.085  0.00  0.00    +0.000 A 
ATOM     18  CZ  PHE A   2      15.894  -3.329  25.156  0.00  0.00    +0.000 A 
ATOM     19  CE1 PHE A   2      14.607  -2.883  25.388  0.00  0.00    +0.000 A 
ATOM     20  CD1 PHE A   2      14.312  -2.175  26.566  0.00  0.00    +0.000 A 
ENDBRANCH  14  15
ENDBRANCH  11  14
ENDBRANCH   3  11
TORSDOF 8
REMARK  Name = ../refined-set-2016/1j37/1j37_pocket.pdb
REMARK  167 active torsions:
REMARK  status: ('A' for Active; 'I' for Inactive)
REMARK    1  A    between atoms: _1  and  _3
REMARK    2  A    between atoms: _3  and  _4
REMARK    3  A    between atoms: _3  and  _6
REMARK    4  A    between atoms: _6  and  _7
REMARK    5  A    between atoms: _7  and  _8
REMARK    6  A    between atoms: _11  and  _13
REMARK    7  A    between atoms: _13  and  _14
REMARK    8  A    between atoms: _13  and  _16
REMARK    9  A    between atoms: _16  and  _17
REMARK   10  A    between atoms: _22  and  _24
REMARK   11  A    between atoms: _24  and  _25
REMARK   12  A    between atoms: _24  and  _27
REMARK   13  A    between atoms: _27  and  _28
REMARK   14  A    between atoms: _38  and  _40
REMARK   15  A    between atoms: _40  and  _41
REMARK   16  A    between atoms: _40  and  _43
REMARK   17  A    between atoms: _43  and  _44
REMARK   18  A    between atoms: _44  and  _45
REMARK   19  A    between atoms: _50  and  _52
REMARK   20  A    between atoms: _52  and  _53
REMARK   21  A    between atoms: _52  and  _55
REMARK   22  A    between atoms: _55  and  _56
REMARK   23  A    between atoms: _56  and  _57
REMARK   24  A    between atoms: _62  and  _64
REMARK   25  A    between atoms: _64  and  _65
REMARK   26  A    between atoms: _64  and  _67
REMARK   27  A    between atoms: _69  and  _71
REMARK   28  A    between atoms: _71  and  _72
REMARK   29  A    between atoms: _71  and  _74
REMARK   30  A    between atoms: _74  and  _75
REMARK   31  A    between atoms: _80  and  _82
REMARK   32  A    between atoms: _82  and  _83
REMARK   33  A    between atoms: _86  and  _88
REMARK   34  A    between atoms: _88  and  _89
REMARK   35  A    between atoms: _88  and  _91
REMARK   36  A    between atoms: _91  and  _92
REMARK   37  A    between atoms: _94  and  _96
REMARK   38  A    between atoms: _96  and  _97
REMARK   39  A    between atoms: _100  and  _102
REMARK   40  A    between atoms: _102  and  _103
REMARK   41  A    between atoms: _102  and  _105
REMARK   42  A    between atoms: _105  and  _106
REMARK   43  A    between atoms: _106  and  _107
REMARK   44  A    between atoms: _107  and  _108
REMARK   45  A    between atoms: _108  and  _109
REMARK   46  A    between atoms: _113  and  _115
REMARK   47  A    between atoms: _115  and  _116
REMARK   48  A    between atoms: _115  and  _118
REMARK   49  A    between atoms: _118  and  _119
REMARK   50  A    between atoms: _119  and  _120
REMARK   51  A    between atoms: _125  and  _127
REMARK   52  A    between atoms: _127  and  _128
REMARK   53  A    between atoms: _127  and  _130
REMARK   54  A    between atoms: _130  and  _131
REMARK   55  A    between atoms: _134  and  _136
REMARK   56  A    between atoms: _136  and  _137
REMARK   57  A    between atoms: _136  and  _139
REMARK   58  A    between atoms: _139  and  _140
REMARK   59  A    between atoms: _143  and  _145
REMARK   60  A    between atoms: _145  and  _146
REMARK   61  A    between atoms: _145  and  _148
REMARK   62  A    between atoms: _148  and  _149
REMARK   63  A    between atoms: _153  and  ZN_399
REMARK   64  A    between atoms: _154  and  _156
REMARK   65  A    between atoms: _156  and  _157
REMARK   66  A    between atoms: _156  and  _159
REMARK   67  A    between atoms: _159  and  _160
REMARK   68  A    between atoms: _160  and  _161
REMARK   69  A    between atoms: _164  and  _166
REMARK   70  A    between atoms: _166  and  _167
REMARK   71  A    between atoms: _166  and  _169
REMARK   72  A    between atoms: _169  and  _170
REMARK   73  A    between atoms: _174  and  ZN_399
REMARK   74  A    between atoms: _175  and  _177
REMARK   75  A    between atoms: _177  and  _178
REMARK   76  A    between atoms: _177  and  _180
REMARK   77  A    between atoms: _180  and  _181
REMARK   78  A    between atoms: _186  and  _188
REMARK   79  A    between atoms: _188  and  _189
REMARK   80  A    between atoms: _188  and  _191
REMARK   81  A    between atoms: _191  and  _192
REMARK   82  A    between atoms: _192  and  _193
REMARK   83  A    between atoms: _193  and  _194
REMARK   84  A    between atoms: _194  and  ZN_399
REMARK   85  A    between atoms: _196  and  _198
REMARK   86  A    between atoms: _198  and  _199
REMARK   87  A    between atoms: _198  and  _201
REMARK   88  A    between atoms: _201  and  _202
REMARK   89  A    between atoms: _205  and  _207
REMARK   90  A    between atoms: _207  and  _208
REMARK   91  A    between atoms: _207  and  _210
REMARK   92  A    between atoms: _210  and  _211
REMARK   93  A    between atoms: _214  and  _216
REMARK   94  A    between atoms: _216  and  _217
REMARK   95  A    between atoms: _216  and  _219
REMARK   96  A    between atoms: _219  and  _220
REMARK   97  A    between atoms: _220  and  _221
REMARK   98  A    between atoms: _221  and  _222
REMARK   99  A    between atoms: _222  and  _223
REMARK  100  A    between atoms: _227  and  _229
REMARK  101  A    between atoms: _229  and  _230
REMARK  102  A    between atoms: _229  and  _232
REMARK  103  A    between atoms: _232  and  _233
REMARK  104  A    between atoms: _239  and  _241
REMARK  105  A    between atoms: _241  and  _242
REMARK  106  A    between atoms: _241  and  _244
REMARK  107  A    between atoms: _244  and  _245
REMARK  108  A    between atoms: _251  and  _253
REMARK  109  A    between atoms: _253  and  _254
REMARK  110  A    between atoms: _257  and  _259
REMARK  111  A    between atoms: _259  and  _260
REMARK  112  A    between atoms: _259  and  _262
REMARK  113  A    between atoms: _262  and  _263
REMARK  114  A    between atoms: _263  and  _264
REMARK  115  A    between atoms: _266  and  _268
REMARK  116  A    between atoms: _268  and  _269
REMARK  117  A    between atoms: _268  and  _271
REMARK  118  A    between atoms: _271  and  _272
REMARK  119  A    between atoms: _272  and  _273
REMARK  120  A    between atoms: _273  and  _274
REMARK  121  A    between atoms: _274  and  _275
REMARK  122  A    between atoms: _279  and  _281
REMARK  123  A    between atoms: _281  and  _282
REMARK  124  A    between atoms: _281  and  _284
REMARK  125  A    between atoms: _284  and  _285
REMARK  126  A    between atoms: _290  and  _291
REMARK  127  A    between atoms: _293  and  _295
REMARK  128  A    between atoms: _295  and  _296
REMARK  129  A    between atoms: _295  and  _298
REMARK  130  A    between atoms: _298  and  _299
REMARK  131  A    between atoms: _304  and  _306
REMARK  132  A    between atoms: _306  and  _307
REMARK  133  A    between atoms: _306  and  _309
REMARK  134  A    between atoms: _312  and  _314
REMARK  135  A    between atoms: _314  and  _315
REMARK  136  A    between atoms: _314  and  _317
REMARK  137  A    between atoms: _317  and  _318
REMARK  138  A    between atoms: _318  and  _319
REMARK  139  A    between atoms: _322  and  _324
REMARK  140  A    between atoms: _324  and  _325
REMARK  141  A    between atoms: _324  and  _327
REMARK  142  A    between atoms: _327  and  _328
REMARK  143  A    between atoms: _333  and  _334
REMARK  144  A    between atoms: _336  and  _338
REMARK  145  A    between atoms: _338  and  _339
REMARK  146  A    between atoms: _338  and  _341
REMARK  147  A    between atoms: _341  and  _342
REMARK  148  A    between atoms: _342  and  _343
REMARK  149  A    between atoms: _343  and  _344
REMARK  150  A    between atoms: _353  and  _355
REMARK  151  A    between atoms: _355  and  _356
REMARK  152  A    between atoms: _355  and  _358
REMARK  153  A    between atoms: _358  and  _359
REMARK  154  A    between atoms: _364  and  _365
REMARK  155  A    between atoms: _367  and  _369
REMARK  156  A    between atoms: _369  and  _370
REMARK  157  A    between atoms: _369  and  _372
REMARK  158  A    between atoms: _372  and  _373
REMARK  159  A    between atoms: _375  and  _377
REMARK  160  A    between atoms: _377  and  _378
REMARK  161  A    between atoms: _377  and  _380
REMARK  162  A    between atoms: _380  and  _381
REMARK  163  A    between atoms: _387  and  _389
REMARK  164  A    between atoms: _389  and  _390
REMARK  165  A    between atoms: _389  and  _392
REMARK  166  A    between atoms: _392  and  _393
REMARK  167  A    between atoms: _393  and  _394
REMARK                            x       y       z     vdW  Elec       q    Type
REMARK                         _______ _______ _______ _____ _____    ______ ____
ROOT
ATOM      1  CB  GLN A   1      10.976  -5.364  31.069  0.00  0.00    +0.000 C 
ENDROOT
BRANCH   1   2
ATOM      2  CA  GLN A   1      10.328  -5.005  32.418  0.00  0.00    +0.000 C 
BRANCH   2   3
ATOM      3  N   GLN A   1      10.346  -3.567  32.666  0.00  0.00    +0.000 NA
ATOM      4  H   GLN A   1      10.839  -2.922  32.015  0.00  0.00    +0.000 HD
ENDBRANCH   2   3
BRANCH   2   5
ATOM      5  C   GLN A   1      11.063  -5.695  33.554  0.00  0.00    +0.000 C 
ATOM      6  O   GLN A   1      10.855  -6.876  33.823  0.00  0.00    +0.000 OA
ENDBRANCH   2   5
ENDBRANCH   1   2
BRANCH   1   7
ATOM      7  CG  GLN A   1      12.468  -5.113  30.952  0.00  0.00    +0.000 C 
BRANCH   7   8
ATOM      8  CD  GLN A   1      12.995  -5.389  29.553  0.00  0.00    +0.000 C 
ATOM      9  NE2 GLN A   1      13.959  -6.290  29.457  0.00  0.00    +0.000 N 
ATOM     10 HE21 GLN A   1      14.312  -6.767  30.311  0.00  0.00    +0.000 HD
ATOM     11 HE22 GLN A   1      14.364  -6.521  28.527  0.00  0.00    +0.000 HD
ATOM     12  OE1 GLN A   1      12.538  -4.790  28.564  0.00  0.00    +0.000 OA
ENDBRANCH   7   8
ENDBRANCH   1   7
TORSDOF 5
