REMARK  Name = ../refined-set-2016/2vsl/2vsl_pocket.pdb
REMARK  125 active torsions:
REMARK  status: ('A' for Active; 'I' for Inactive)
REMARK    1  A    between atoms: _1  and  _5
REMARK    2  A    between atoms: _5  and  _6
REMARK    3  A    between atoms: _5  and  _8
REMARK    4  A    between atoms: _8  and  _9
REMARK    5  A    between atoms: _15  and  _17
REMARK    6  A    between atoms: _17  and  _18
REMARK    7  A    between atoms: _17  and  _20
REMARK    8  A    between atoms: _23  and  _25
REMARK    9  A    between atoms: _25  and  _26
REMARK   10  A    between atoms: _25  and  _28
REMARK   11  A    between atoms: _28  and  _29
REMARK   12  A    between atoms: _32  and  _34
REMARK   13  A    between atoms: _34  and  _35
REMARK   14  A    between atoms: _34  and  _37
REMARK   15  A    between atoms: _37  and  _38
REMARK   16  A    between atoms: _44  and  _46
REMARK   17  A    between atoms: _46  and  _47
REMARK   18  A    between atoms: _46  and  _49
REMARK   19  A    between atoms: _49  and  _50
REMARK   20  A    between atoms: _55  and  _56
REMARK   21  A    between atoms: _58  and  _60
REMARK   22  A    between atoms: _60  and  _61
REMARK   23  A    between atoms: _64  and  _66
REMARK   24  A    between atoms: _66  and  _67
REMARK   25  A    between atoms: _66  and  _69
REMARK   26  A    between atoms: _69  and  _70
REMARK   27  A    between atoms: _73  and  _75
REMARK   28  A    between atoms: _75  and  _76
REMARK   29  A    between atoms: _75  and  _78
REMARK   30  A    between atoms: _78  and  _79
REMARK   31  A    between atoms: _79  and  _80
REMARK   32  A    between atoms: _83  and  _85
REMARK   33  A    between atoms: _85  and  _86
REMARK   34  A    between atoms: _85  and  _88
REMARK   35  A    between atoms: _88  and  _89
REMARK   36  A    between atoms: _92  and  _94
REMARK   37  A    between atoms: _94  and  _95
REMARK   38  A    between atoms: _94  and  _97
REMARK   39  A    between atoms: _97  and  _98
REMARK   40  A    between atoms: _98  and  _99
REMARK   41  A    between atoms: _99  and  _100
REMARK   42  A    between atoms: _100  and  _101
REMARK   43  A    between atoms: _105  and  _107
REMARK   44  A    between atoms: _107  and  _108
REMARK   45  A    between atoms: _107  and  _110
REMARK   46  A    between atoms: _113  and  _115
REMARK   47  A    between atoms: _115  and  _116
REMARK   48  A    between atoms: _115  and  _118
REMARK   49  A    between atoms: _118  and  _119
REMARK   50  A    between atoms: _119  and  _120
REMARK   51  A    between atoms: _120  and  _121
REMARK   52  A    between atoms: _121  and  _122
REMARK   53  A    between atoms: _126  and  _128
REMARK   54  A    between atoms: _128  and  _129
REMARK   55  A    between atoms: _128  and  _131
REMARK   56  A    between atoms: _133  and  _135
REMARK   57  A    between atoms: _135  and  _136
REMARK   58  A    between atoms: _138  and  _140
REMARK   59  A    between atoms: _140  and  _141
REMARK   60  A    between atoms: _143  and  _145
REMARK   61  A    between atoms: _145  and  _146
REMARK   62  A    between atoms: _148  and  _150
REMARK   63  A    between atoms: _150  and  _151
REMARK   64  A    between atoms: _150  and  _153
REMARK   65  A    between atoms: _153  and  _154
REMARK   66  A    between atoms: _157  and  _159
REMARK   67  A    between atoms: _159  and  _160
REMARK   68  A    between atoms: _159  and  _162
REMARK   69  A    between atoms: _162  and  _163
REMARK   70  A    between atoms: _166  and  _168
REMARK   71  A    between atoms: _168  and  _169
REMARK   72  A    between atoms: _168  and  _171
REMARK   73  A    between atoms: _171  and  _172
REMARK   74  A    between atoms: _175  and  _177
REMARK   75  A    between atoms: _177  and  _178
REMARK   76  A    between atoms: _177  and  _180
REMARK   77  A    between atoms: _180  and  _181
REMARK   78  A    between atoms: _191  and  _193
REMARK   79  A    between atoms: _193  and  _194
REMARK   80  A    between atoms: _193  and  _196
REMARK   81  A    between atoms: _196  and  _197
REMARK   82  A    between atoms: _197  and  _198
REMARK   83  A    between atoms: _198  and  _199
REMARK   84  A    between atoms: _199  and  _200
REMARK   85  A    between atoms: _205  and  _206
REMARK   86  A    between atoms: _211  and  _213
REMARK   87  A    between atoms: _213  and  _214
REMARK   88  A    between atoms: _213  and  _216
REMARK   89  A    between atoms: _216  and  _217
REMARK   90  A    between atoms: _217  and  _218
REMARK   91  A    between atoms: _221  and  _223
REMARK   92  A    between atoms: _223  and  _224
REMARK   93  A    between atoms: _223  and  _226
REMARK   94  A    between atoms: _226  and  _227
REMARK   95  A    between atoms: _231  and  _232
REMARK   96  A    between atoms: _237  and  _239
REMARK   97  A    between atoms: _239  and  _240
REMARK   98  A    between atoms: _239  and  _242
REMARK   99  A    between atoms: _242  and  _243
REMARK  100  A    between atoms: _243  and  _244
REMARK  101  A    between atoms: _247  and  _249
REMARK  102  A    between atoms: _249  and  _250
REMARK  103  A    between atoms: _249  and  _252
REMARK  104  A    between atoms: _252  and  _253
REMARK  105  A    between atoms: _253  and  _254
REMARK  106  A    between atoms: _259  and  _261
REMARK  107  A    between atoms: _261  and  _262
REMARK  108  A    between atoms: _261  and  _264
REMARK  109  A    between atoms: _264  and  _265
REMARK  110  A    between atoms: _270  and  _272
REMARK  111  A    between atoms: _272  and  _273
REMARK  112  A    between atoms: _272  and  _275
REMARK  113  A    between atoms: _275  and  _276
REMARK  114  A    between atoms: _276  and  _277
REMARK  115  A    between atoms: _277  and  _278
REMARK  116  A    between atoms: _278  and  _279
REMARK  117  A    between atoms: _283  and  _285
REMARK  118  A    between atoms: _285  and  _286
REMARK  119  A    between atoms: _285  and  _288
REMARK  120  A    between atoms: _288  and  _289
REMARK  121  A    between atoms: _299  and  _301
REMARK  122  A    between atoms: _301  and  _302
REMARK  123  A    between atoms: _301  and  _304
REMARK  124  A    between atoms: _304  and  _305
REMARK  125  A    between atoms: _310  and  _311
REMARK                            x       y       z     vdW  Elec       q    Type
REMARK                         _______ _______ _______ _____ _____    ______ ____
ROOT
ATOM      1  CA  PHE A   1      22.347   8.721  30.715  0.00  0.00    +0.005 C 
ENDROOT
BRANCH   1   2
ATOM      2  N   PHE A   1      23.487   8.008  31.362  0.00  0.00    +0.387 N 
ATOM      3  H1  PHE A   1      23.407   8.095  32.395  0.00  0.00    -0.089 HD
ATOM      4  H2  PHE A   1      23.462   7.003  31.095  0.00  0.00    -0.089 HD
ATOM      5  H3  PHE A   1      24.383   8.430  31.045  0.00  0.00    -0.089 HD
ENDBRANCH   1   2
BRANCH   1   6
ATOM      6  C   PHE A   1      22.325  10.206  31.068  0.00  0.00    +0.185 C 
ATOM      7  O   PHE A   1      22.358  10.578  32.242  0.00  0.00    -0.291 OA
ENDBRANCH   1   6
BRANCH   1   8
ATOM      8  CB  PHE A   1      21.014   8.096  31.138  0.00  0.00    +0.012 C 
BRANCH   8   9
ATOM      9  CG  PHE A   1      19.806   8.775  30.541  0.00  0.00    -0.024 A 
ATOM     10  CD2 PHE A   1      18.951   9.530  31.340  0.00  0.00    -0.004 A 
ATOM     11  CE2 PHE A   1      17.831  10.156  30.794  0.00  0.00    -0.000 A 
ATOM     12  CZ  PHE A   1      17.557  10.030  29.435  0.00  0.00    -0.000 A 
ATOM     13  CE1 PHE A   1      18.404   9.281  28.626  0.00  0.00    -0.000 A 
ATOM     14  CD1 PHE A   1      19.523   8.658  29.181  0.00  0.00    -0.004 A 
ENDBRANCH   8   9
ENDBRANCH   1   8
TORSDOF 4
REMARK  Name = ../refined-set-2016/2vsl/2vsl_pocket.pdb
REMARK  125 active torsions:
REMARK  status: ('A' for Active; 'I' for Inactive)
REMARK    1  A    between atoms: _1  and  _5
REMARK    2  A    between atoms: _5  and  _6
REMARK    3  A    between atoms: _5  and  _8
REMARK    4  A    between atoms: _8  and  _9
REMARK    5  A    between atoms: _15  and  _17
REMARK    6  A    between atoms: _17  and  _18
REMARK    7  A    between atoms: _17  and  _20
REMARK    8  A    between atoms: _23  and  _25
REMARK    9  A    between atoms: _25  and  _26
REMARK   10  A    between atoms: _25  and  _28
REMARK   11  A    between atoms: _28  and  _29
REMARK   12  A    between atoms: _32  and  _34
REMARK   13  A    between atoms: _34  and  _35
REMARK   14  A    between atoms: _34  and  _37
REMARK   15  A    between atoms: _37  and  _38
REMARK   16  A    between atoms: _44  and  _46
REMARK   17  A    between atoms: _46  and  _47
REMARK   18  A    between atoms: _46  and  _49
REMARK   19  A    between atoms: _49  and  _50
REMARK   20  A    between atoms: _55  and  _56
REMARK   21  A    between atoms: _58  and  _60
REMARK   22  A    between atoms: _60  and  _61
REMARK   23  A    between atoms: _64  and  _66
REMARK   24  A    between atoms: _66  and  _67
REMARK   25  A    between atoms: _66  and  _69
REMARK   26  A    between atoms: _69  and  _70
REMARK   27  A    between atoms: _73  and  _75
REMARK   28  A    between atoms: _75  and  _76
REMARK   29  A    between atoms: _75  and  _78
REMARK   30  A    between atoms: _78  and  _79
REMARK   31  A    between atoms: _79  and  _80
REMARK   32  A    between atoms: _83  and  _85
REMARK   33  A    between atoms: _85  and  _86
REMARK   34  A    between atoms: _85  and  _88
REMARK   35  A    between atoms: _88  and  _89
REMARK   36  A    between atoms: _92  and  _94
REMARK   37  A    between atoms: _94  and  _95
REMARK   38  A    between atoms: _94  and  _97
REMARK   39  A    between atoms: _97  and  _98
REMARK   40  A    between atoms: _98  and  _99
REMARK   41  A    between atoms: _99  and  _100
REMARK   42  A    between atoms: _100  and  _101
REMARK   43  A    between atoms: _105  and  _107
REMARK   44  A    between atoms: _107  and  _108
REMARK   45  A    between atoms: _107  and  _110
REMARK   46  A    between atoms: _113  and  _115
REMARK   47  A    between atoms: _115  and  _116
REMARK   48  A    between atoms: _115  and  _118
REMARK   49  A    between atoms: _118  and  _119
REMARK   50  A    between atoms: _119  and  _120
REMARK   51  A    between atoms: _120  and  _121
REMARK   52  A    between atoms: _121  and  _122
REMARK   53  A    between atoms: _126  and  _128
REMARK   54  A    between atoms: _128  and  _129
REMARK   55  A    between atoms: _128  and  _131
REMARK   56  A    between atoms: _133  and  _135
REMARK   57  A    between atoms: _135  and  _136
REMARK   58  A    between atoms: _138  and  _140
REMARK   59  A    between atoms: _140  and  _141
REMARK   60  A    between atoms: _143  and  _145
REMARK   61  A    between atoms: _145  and  _146
REMARK   62  A    between atoms: _148  and  _150
REMARK   63  A    between atoms: _150  and  _151
REMARK   64  A    between atoms: _150  and  _153
REMARK   65  A    between atoms: _153  and  _154
REMARK   66  A    between atoms: _157  and  _159
REMARK   67  A    between atoms: _159  and  _160
REMARK   68  A    between atoms: _159  and  _162
REMARK   69  A    between atoms: _162  and  _163
REMARK   70  A    between atoms: _166  and  _168
REMARK   71  A    between atoms: _168  and  _169
REMARK   72  A    between atoms: _168  and  _171
REMARK   73  A    between atoms: _171  and  _172
REMARK   74  A    between atoms: _175  and  _177
REMARK   75  A    between atoms: _177  and  _178
REMARK   76  A    between atoms: _177  and  _180
REMARK   77  A    between atoms: _180  and  _181
REMARK   78  A    between atoms: _191  and  _193
REMARK   79  A    between atoms: _193  and  _194
REMARK   80  A    between atoms: _193  and  _196
REMARK   81  A    between atoms: _196  and  _197
REMARK   82  A    between atoms: _197  and  _198
REMARK   83  A    between atoms: _198  and  _199
REMARK   84  A    between atoms: _199  and  _200
REMARK   85  A    between atoms: _205  and  _206
REMARK   86  A    between atoms: _211  and  _213
REMARK   87  A    between atoms: _213  and  _214
REMARK   88  A    between atoms: _213  and  _216
REMARK   89  A    between atoms: _216  and  _217
REMARK   90  A    between atoms: _217  and  _218
REMARK   91  A    between atoms: _221  and  _223
REMARK   92  A    between atoms: _223  and  _224
REMARK   93  A    between atoms: _223  and  _226
REMARK   94  A    between atoms: _226  and  _227
REMARK   95  A    between atoms: _231  and  _232
REMARK   96  A    between atoms: _237  and  _239
REMARK   97  A    between atoms: _239  and  _240
REMARK   98  A    between atoms: _239  and  _242
REMARK   99  A    between atoms: _242  and  _243
REMARK  100  A    between atoms: _243  and  _244
REMARK  101  A    between atoms: _247  and  _249
REMARK  102  A    between atoms: _249  and  _250
REMARK  103  A    between atoms: _249  and  _252
REMARK  104  A    between atoms: _252  and  _253
REMARK  105  A    between atoms: _253  and  _254
REMARK  106  A    between atoms: _259  and  _261
REMARK  107  A    between atoms: _261  and  _262
REMARK  108  A    between atoms: _261  and  _264
REMARK  109  A    between atoms: _264  and  _265
REMARK  110  A    between atoms: _270  and  _272
REMARK  111  A    between atoms: _272  and  _273
REMARK  112  A    between atoms: _272  and  _275
REMARK  113  A    between atoms: _275  and  _276
REMARK  114  A    between atoms: _276  and  _277
REMARK  115  A    between atoms: _277  and  _278
REMARK  116  A    between atoms: _278  and  _279
REMARK  117  A    between atoms: _283  and  _285
REMARK  118  A    between atoms: _285  and  _286
REMARK  119  A    between atoms: _285  and  _288
REMARK  120  A    between atoms: _288  and  _289
REMARK  121  A    between atoms: _299  and  _301
REMARK  122  A    between atoms: _301  and  _302
REMARK  123  A    between atoms: _301  and  _304
REMARK  124  A    between atoms: _304  and  _305
REMARK  125  A    between atoms: _310  and  _311
REMARK                            x       y       z     vdW  Elec       q    Type
REMARK                         _______ _______ _______ _____ _____    ______ ____
ROOT
ATOM      1  CA  VAL A   1       4.212  19.447  17.725  0.00  0.00    +0.133 C 
ENDROOT
BRANCH   1   2
ATOM      2  CB  VAL A   1       5.055  18.809  18.858  0.00  0.00    +0.023 C 
ATOM      3  CG2 VAL A   1       4.752  17.322  18.964  0.00  0.00    +0.002 C 
ATOM      4  CG1 VAL A   1       6.541  19.049  18.602  0.00  0.00    +0.002 C 
ENDBRANCH   1   2
BRANCH   1   5
ATOM      5  N   VAL A   1       2.786  19.214  17.938  0.00  0.00    -0.239 NA
ATOM      6  H   VAL A   1       2.462  18.781  18.826  0.00  0.00    +0.142 HD
ENDBRANCH   1   5
BRANCH   1   7
ATOM      7  C   VAL A   1       4.600  18.874  16.357  0.00  0.00    +0.224 C 
ATOM      8  O   VAL A   1       4.327  17.713  16.054  0.00  0.00    -0.287 OA
ENDBRANCH   1   7
TORSDOF 3
REMARK  Name = ../refined-set-2016/2vsl/2vsl_pocket.pdb
REMARK  125 active torsions:
REMARK  status: ('A' for Active; 'I' for Inactive)
REMARK    1  A    between atoms: _1  and  _5
REMARK    2  A    between atoms: _5  and  _6
REMARK    3  A    between atoms: _5  and  _8
REMARK    4  A    between atoms: _8  and  _9
REMARK    5  A    between atoms: _15  and  _17
REMARK    6  A    between atoms: _17  and  _18
REMARK    7  A    between atoms: _17  and  _20
REMARK    8  A    between atoms: _23  and  _25
REMARK    9  A    between atoms: _25  and  _26
REMARK   10  A    between atoms: _25  and  _28
REMARK   11  A    between atoms: _28  and  _29
REMARK   12  A    between atoms: _32  and  _34
REMARK   13  A    between atoms: _34  and  _35
REMARK   14  A    between atoms: _34  and  _37
REMARK   15  A    between atoms: _37  and  _38
REMARK   16  A    between atoms: _44  and  _46
REMARK   17  A    between atoms: _46  and  _47
REMARK   18  A    between atoms: _46  and  _49
REMARK   19  A    between atoms: _49  and  _50
REMARK   20  A    between atoms: _55  and  _56
REMARK   21  A    between atoms: _58  and  _60
REMARK   22  A    between atoms: _60  and  _61
REMARK   23  A    between atoms: _64  and  _66
REMARK   24  A    between atoms: _66  and  _67
REMARK   25  A    between atoms: _66  and  _69
REMARK   26  A    between atoms: _69  and  _70
REMARK   27  A    between atoms: _73  and  _75
REMARK   28  A    between atoms: _75  and  _76
REMARK   29  A    between atoms: _75  and  _78
REMARK   30  A    between atoms: _78  and  _79
REMARK   31  A    between atoms: _79  and  _80
REMARK   32  A    between atoms: _83  and  _85
REMARK   33  A    between atoms: _85  and  _86
REMARK   34  A    between atoms: _85  and  _88
REMARK   35  A    between atoms: _88  and  _89
REMARK   36  A    between atoms: _92  and  _94
REMARK   37  A    between atoms: _94  and  _95
REMARK   38  A    between atoms: _94  and  _97
REMARK   39  A    between atoms: _97  and  _98
REMARK   40  A    between atoms: _98  and  _99
REMARK   41  A    between atoms: _99  and  _100
REMARK   42  A    between atoms: _100  and  _101
REMARK   43  A    between atoms: _105  and  _107
REMARK   44  A    between atoms: _107  and  _108
REMARK   45  A    between atoms: _107  and  _110
REMARK   46  A    between atoms: _113  and  _115
REMARK   47  A    between atoms: _115  and  _116
REMARK   48  A    between atoms: _115  and  _118
REMARK   49  A    between atoms: _118  and  _119
REMARK   50  A    between atoms: _119  and  _120
REMARK   51  A    between atoms: _120  and  _121
REMARK   52  A    between atoms: _121  and  _122
REMARK   53  A    between atoms: _126  and  _128
REMARK   54  A    between atoms: _128  and  _129
REMARK   55  A    between atoms: _128  and  _131
REMARK   56  A    between atoms: _133  and  _135
REMARK   57  A    between atoms: _135  and  _136
REMARK   58  A    between atoms: _138  and  _140
REMARK   59  A    between atoms: _140  and  _141
REMARK   60  A    between atoms: _143  and  _145
REMARK   61  A    between atoms: _145  and  _146
REMARK   62  A    between atoms: _148  and  _150
REMARK   63  A    between atoms: _150  and  _151
REMARK   64  A    between atoms: _150  and  _153
REMARK   65  A    between atoms: _153  and  _154
REMARK   66  A    between atoms: _157  and  _159
REMARK   67  A    between atoms: _159  and  _160
REMARK   68  A    between atoms: _159  and  _162
REMARK   69  A    between atoms: _162  and  _163
REMARK   70  A    between atoms: _166  and  _168
REMARK   71  A    between atoms: _168  and  _169
REMARK   72  A    between atoms: _168  and  _171
REMARK   73  A    between atoms: _171  and  _172
REMARK   74  A    between atoms: _175  and  _177
REMARK   75  A    between atoms: _177  and  _178
REMARK   76  A    between atoms: _177  and  _180
REMARK   77  A    between atoms: _180  and  _181
REMARK   78  A    between atoms: _191  and  _193
REMARK   79  A    between atoms: _193  and  _194
REMARK   80  A    between atoms: _193  and  _196
REMARK   81  A    between atoms: _196  and  _197
REMARK   82  A    between atoms: _197  and  _198
REMARK   83  A    between atoms: _198  and  _199
REMARK   84  A    between atoms: _199  and  _200
REMARK   85  A    between atoms: _205  and  _206
REMARK   86  A    between atoms: _211  and  _213
REMARK   87  A    between atoms: _213  and  _214
REMARK   88  A    between atoms: _213  and  _216
REMARK   89  A    between atoms: _216  and  _217
REMARK   90  A    between atoms: _217  and  _218
REMARK   91  A    between atoms: _221  and  _223
REMARK   92  A    between atoms: _223  and  _224
REMARK   93  A    between atoms: _223  and  _226
REMARK   94  A    between atoms: _226  and  _227
REMARK   95  A    between atoms: _231  and  _232
REMARK   96  A    between atoms: _237  and  _239
REMARK   97  A    between atoms: _239  and  _240
REMARK   98  A    between atoms: _239  and  _242
REMARK   99  A    between atoms: _242  and  _243
REMARK  100  A    between atoms: _243  and  _244
REMARK  101  A    between atoms: _247  and  _249
REMARK  102  A    between atoms: _249  and  _250
REMARK  103  A    between atoms: _249  and  _252
REMARK  104  A    between atoms: _252  and  _253
REMARK  105  A    between atoms: _253  and  _254
REMARK  106  A    between atoms: _259  and  _261
REMARK  107  A    between atoms: _261  and  _262
REMARK  108  A    between atoms: _261  and  _264
REMARK  109  A    between atoms: _264  and  _265
REMARK  110  A    between atoms: _270  and  _272
REMARK  111  A    between atoms: _272  and  _273
REMARK  112  A    between atoms: _272  and  _275
REMARK  113  A    between atoms: _275  and  _276
REMARK  114  A    between atoms: _276  and  _277
REMARK  115  A    between atoms: _277  and  _278
REMARK  116  A    between atoms: _278  and  _279
REMARK  117  A    between atoms: _283  and  _285
REMARK  118  A    between atoms: _285  and  _286
REMARK  119  A    between atoms: _285  and  _288
REMARK  120  A    between atoms: _288  and  _289
REMARK  121  A    between atoms: _299  and  _301
REMARK  122  A    between atoms: _301  and  _302
REMARK  123  A    between atoms: _301  and  _304
REMARK  124  A    between atoms: _304  and  _305
REMARK  125  A    between atoms: _310  and  _311
REMARK                            x       y       z     vdW  Elec       q    Type
REMARK                         _______ _______ _______ _____ _____    ______ ____
ROOT
ATOM      1  CA  LEU A   1      11.075  16.742  15.688  0.00  0.00    +0.133 C 
ENDROOT
BRANCH   1   2
ATOM      2  N   LEU A   1      10.636  17.767  14.751  0.00  0.00    -0.239 NA
ATOM      3  H   LEU A   1       9.656  17.759  14.403  0.00  0.00    +0.142 HD
ENDBRANCH   1   2
BRANCH   1   4
ATOM      4  C   LEU A   1      12.162  15.882  15.050  0.00  0.00    +0.224 C 
ATOM      5  O   LEU A   1      13.212  15.659  15.644  0.00  0.00    -0.287 OA
ENDBRANCH   1   4
BRANCH   1   6
ATOM      6  CB  LEU A   1       9.892  15.858  16.102  0.00  0.00    +0.025 C 
BRANCH   6   7
ATOM      7  CG  LEU A   1       8.902  16.453  17.108  0.00  0.00    +0.002 C 
ATOM      8  CD2 LEU A   1       9.566  16.559  18.474  0.00  0.00    +0.000 C 
ATOM      9  CD1 LEU A   1       7.643  15.570  17.189  0.00  0.00    +0.000 C 
ENDBRANCH   6   7
ENDBRANCH   1   6
TORSDOF 4
REMARK  Name = ../refined-set-2016/2vsl/2vsl_pocket.pdb
REMARK  125 active torsions:
REMARK  status: ('A' for Active; 'I' for Inactive)
REMARK    1  A    between atoms: _1  and  _5
REMARK    2  A    between atoms: _5  and  _6
REMARK    3  A    between atoms: _5  and  _8
REMARK    4  A    between atoms: _8  and  _9
REMARK    5  A    between atoms: _15  and  _17
REMARK    6  A    between atoms: _17  and  _18
REMARK    7  A    between atoms: _17  and  _20
REMARK    8  A    between atoms: _23  and  _25
REMARK    9  A    between atoms: _25  and  _26
REMARK   10  A    between atoms: _25  and  _28
REMARK   11  A    between atoms: _28  and  _29
REMARK   12  A    between atoms: _32  and  _34
REMARK   13  A    between atoms: _34  and  _35
REMARK   14  A    between atoms: _34  and  _37
REMARK   15  A    between atoms: _37  and  _38
REMARK   16  A    between atoms: _44  and  _46
REMARK   17  A    between atoms: _46  and  _47
REMARK   18  A    between atoms: _46  and  _49
REMARK   19  A    between atoms: _49  and  _50
REMARK   20  A    between atoms: _55  and  _56
REMARK   21  A    between atoms: _58  and  _60
REMARK   22  A    between atoms: _60  and  _61
REMARK   23  A    between atoms: _64  and  _66
REMARK   24  A    between atoms: _66  and  _67
REMARK   25  A    between atoms: _66  and  _69
REMARK   26  A    between atoms: _69  and  _70
REMARK   27  A    between atoms: _73  and  _75
REMARK   28  A    between atoms: _75  and  _76
REMARK   29  A    between atoms: _75  and  _78
REMARK   30  A    between atoms: _78  and  _79
REMARK   31  A    between atoms: _79  and  _80
REMARK   32  A    between atoms: _83  and  _85
REMARK   33  A    between atoms: _85  and  _86
REMARK   34  A    between atoms: _85  and  _88
REMARK   35  A    between atoms: _88  and  _89
REMARK   36  A    between atoms: _92  and  _94
REMARK   37  A    between atoms: _94  and  _95
REMARK   38  A    between atoms: _94  and  _97
REMARK   39  A    between atoms: _97  and  _98
REMARK   40  A    between atoms: _98  and  _99
REMARK   41  A    between atoms: _99  and  _100
REMARK   42  A    between atoms: _100  and  _101
REMARK   43  A    between atoms: _105  and  _107
REMARK   44  A    between atoms: _107  and  _108
REMARK   45  A    between atoms: _107  and  _110
REMARK   46  A    between atoms: _113  and  _115
REMARK   47  A    between atoms: _115  and  _116
REMARK   48  A    between atoms: _115  and  _118
REMARK   49  A    between atoms: _118  and  _119
REMARK   50  A    between atoms: _119  and  _120
REMARK   51  A    between atoms: _120  and  _121
REMARK   52  A    between atoms: _121  and  _122
REMARK   53  A    between atoms: _126  and  _128
REMARK   54  A    between atoms: _128  and  _129
REMARK   55  A    between atoms: _128  and  _131
REMARK   56  A    between atoms: _133  and  _135
REMARK   57  A    between atoms: _135  and  _136
REMARK   58  A    between atoms: _138  and  _140
REMARK   59  A    between atoms: _140  and  _141
REMARK   60  A    between atoms: _143  and  _145
REMARK   61  A    between atoms: _145  and  _146
REMARK   62  A    between atoms: _148  and  _150
REMARK   63  A    between atoms: _150  and  _151
REMARK   64  A    between atoms: _150  and  _153
REMARK   65  A    between atoms: _153  and  _154
REMARK   66  A    between atoms: _157  and  _159
REMARK   67  A    between atoms: _159  and  _160
REMARK   68  A    between atoms: _159  and  _162
REMARK   69  A    between atoms: _162  and  _163
REMARK   70  A    between atoms: _166  and  _168
REMARK   71  A    between atoms: _168  and  _169
REMARK   72  A    between atoms: _168  and  _171
REMARK   73  A    between atoms: _171  and  _172
REMARK   74  A    between atoms: _175  and  _177
REMARK   75  A    between atoms: _177  and  _178
REMARK   76  A    between atoms: _177  and  _180
REMARK   77  A    between atoms: _180  and  _181
REMARK   78  A    between atoms: _191  and  _193
REMARK   79  A    between atoms: _193  and  _194
REMARK   80  A    between atoms: _193  and  _196
REMARK   81  A    between atoms: _196  and  _197
REMARK   82  A    between atoms: _197  and  _198
REMARK   83  A    between atoms: _198  and  _199
REMARK   84  A    between atoms: _199  and  _200
REMARK   85  A    between atoms: _205  and  _206
REMARK   86  A    between atoms: _211  and  _213
REMARK   87  A    between atoms: _213  and  _214
REMARK   88  A    between atoms: _213  and  _216
REMARK   89  A    between atoms: _216  and  _217
REMARK   90  A    between atoms: _217  and  _218
REMARK   91  A    between atoms: _221  and  _223
REMARK   92  A    between atoms: _223  and  _224
REMARK   93  A    between atoms: _223  and  _226
REMARK   94  A    between atoms: _226  and  _227
REMARK   95  A    between atoms: _231  and  _232
REMARK   96  A    between atoms: _237  and  _239
REMARK   97  A    between atoms: _239  and  _240
REMARK   98  A    between atoms: _239  and  _242
REMARK   99  A    between atoms: _242  and  _243
REMARK  100  A    between atoms: _243  and  _244
REMARK  101  A    between atoms: _247  and  _249
REMARK  102  A    between atoms: _249  and  _250
REMARK  103  A    between atoms: _249  and  _252
REMARK  104  A    between atoms: _252  and  _253
REMARK  105  A    between atoms: _253  and  _254
REMARK  106  A    between atoms: _259  and  _261
REMARK  107  A    between atoms: _261  and  _262
REMARK  108  A    between atoms: _261  and  _264
REMARK  109  A    between atoms: _264  and  _265
REMARK  110  A    between atoms: _270  and  _272
REMARK  111  A    between atoms: _272  and  _273
REMARK  112  A    between atoms: _272  and  _275
REMARK  113  A    between atoms: _275  and  _276
REMARK  114  A    between atoms: _276  and  _277
REMARK  115  A    between atoms: _277  and  _278
REMARK  116  A    between atoms: _278  and  _279
REMARK  117  A    between atoms: _283  and  _285
REMARK  118  A    between atoms: _285  and  _286
REMARK  119  A    between atoms: _285  and  _288
REMARK  120  A    between atoms: _288  and  _289
REMARK  121  A    between atoms: _299  and  _301
REMARK  122  A    between atoms: _301  and  _302
REMARK  123  A    between atoms: _301  and  _304
REMARK  124  A    between atoms: _304  and  _305
REMARK  125  A    between atoms: _310  and  _311
REMARK                            x       y       z     vdW  Elec       q    Type
REMARK                         _______ _______ _______ _____ _____    ______ ____
ROOT
ATOM      1  CA  TYR A   2      11.931   9.617  16.391  0.00  0.00    +0.153 C 
ENDROOT
BRANCH   1   3
ATOM      2  C   PHE A   1      13.200  11.695  16.560  0.00  0.00    +0.239 C 
ATOM      3  N   TYR A   2      12.752  10.577  17.123  0.00  0.00    -0.297 N 
ATOM      4  H   TYR A   2      12.994  10.380  18.115  0.00  0.00    +0.150 HD
ATOM      5  O   PHE A   1      13.020  11.970  15.379  0.00  0.00    -0.274 OA
BRANCH   2   6
ATOM      6  CA  PHE A   1      13.972  12.628  17.478  0.00  0.00    +0.149 C 
BRANCH   6   7
ATOM      7  N   PHE A   1      14.940  13.516  16.842  0.00  0.00    -0.238 NA
ATOM      8  H   PHE A   1      14.634  14.457  16.522  0.00  0.00    +0.142 HD
ENDBRANCH   6   7
BRANCH   6   9
ATOM      9  CB  PHE A   1      12.964  13.465  18.269  0.00  0.00    +0.053 C 
BRANCH   9  10
ATOM     10  CG  PHE A   1      13.584  14.298  19.348  0.00  0.00    -0.020 A 
ATOM     11  CD2 PHE A   1      14.134  13.699  20.474  0.00  0.00    -0.004 A 
ATOM     12  CE2 PHE A   1      14.715  14.466  21.483  0.00  0.00    -0.000 A 
ATOM     13  CZ  PHE A   1      14.747  15.854  21.365  0.00  0.00    -0.000 A 
ATOM     14  CE1 PHE A   1      14.200  16.466  20.240  0.00  0.00    -0.000 A 
ATOM     15  CD1 PHE A   1      13.622  15.690  19.238  0.00  0.00    -0.004 A 
ENDBRANCH   9  10
ENDBRANCH   6   9
ENDBRANCH   2   6
ENDBRANCH   1   3
BRANCH   1  16
ATOM     16  C   TYR A   2      10.884   9.110  17.385  0.00  0.00    +0.241 C 
ATOM     17  O   TYR A   2      11.148   9.014  18.582  0.00  0.00    -0.273 OA
ATOM     18  N   ALA A   3       9.687   8.814  16.891  0.00  0.00    -0.297 N 
ATOM     19  H   ALA A   3       9.519   8.910  15.869  0.00  0.00    +0.150 HD
BRANCH  18  20
ATOM     20  CA  ALA A   3       8.601   8.355  17.757  0.00  0.00    +0.149 C 
ATOM     21  CB  ALA A   3       7.267   8.541  17.045  0.00  0.00    +0.031 C 
BRANCH  20  22
ATOM     22  C   ALA A   3       8.748   6.904  18.200  0.00  0.00    +0.241 C 
ATOM     23  N   LEU A   4       8.394   6.641  19.458  0.00  0.00    -0.298 N 
ATOM     24  H   LEU A   4       8.061   7.422  20.059  0.00  0.00    +0.150 HD
ATOM     25  O   ALA A   3       9.175   6.049  17.420  0.00  0.00    -0.273 OA
BRANCH  23  26
ATOM     26  CA  LEU A   4       8.456   5.302  20.021  0.00  0.00    +0.137 C 
BRANCH  26  27
ATOM     27  C   LEU A   4       7.147   4.555  19.770  0.00  0.00    +0.227 C 
ATOM     28  O   LEU A   4       7.078   3.342  19.953  0.00  0.00    -0.286 OA
ENDBRANCH  26  27
BRANCH  26  29
ATOM     29  CB  LEU A   4       8.702   5.348  21.536  0.00  0.00    +0.028 C 
BRANCH  29  30
ATOM     30  CG  LEU A   4       9.952   6.038  22.091  0.00  0.00    +0.002 C 
ATOM     31  CD2 LEU A   4      10.213   5.520  23.496  0.00  0.00    +0.000 C 
ATOM     32  CD1 LEU A   4      11.157   5.757  21.207  0.00  0.00    +0.000 C 
ENDBRANCH  29  30
ENDBRANCH  26  29
ENDBRANCH  23  26
ENDBRANCH  20  22
ENDBRANCH  18  20
ENDBRANCH   1  16
BRANCH   1  33
ATOM     33  CB  TYR A   2      12.781   8.473  15.813  0.00  0.00    +0.055 C 
BRANCH  33  34
ATOM     34  CG  TYR A   2      13.555   7.669  16.827  0.00  0.00    -0.020 A 
ATOM     35  CD2 TYR A   2      12.986   6.557  17.449  0.00  0.00    -0.001 A 
ATOM     36  CE2 TYR A   2      13.701   5.822  18.400  0.00  0.00    +0.036 A 
ATOM     37  CZ  TYR A   2      14.995   6.209  18.731  0.00  0.00    +0.134 A 
ATOM     38  CE1 TYR A   2      15.571   7.312  18.120  0.00  0.00    +0.036 A 
ATOM     39  CD1 TYR A   2      14.853   8.029  17.177  0.00  0.00    -0.001 A 
BRANCH  37  40
ATOM     40  OH  TYR A   2      15.714   5.511  19.680  0.00  0.00    -0.506 OA
ATOM     41  HH  TYR A   2      15.168   4.758  20.018  0.00  0.00    +0.292 HD
ENDBRANCH  37  40
ENDBRANCH  33  34
ENDBRANCH   1  33
TORSDOF 15
REMARK  Name = ../refined-set-2016/2vsl/2vsl_pocket.pdb
REMARK  125 active torsions:
REMARK  status: ('A' for Active; 'I' for Inactive)
REMARK    1  A    between atoms: _1  and  _5
REMARK    2  A    between atoms: _5  and  _6
REMARK    3  A    between atoms: _5  and  _8
REMARK    4  A    between atoms: _8  and  _9
REMARK    5  A    between atoms: _15  and  _17
REMARK    6  A    between atoms: _17  and  _18
REMARK    7  A    between atoms: _17  and  _20
REMARK    8  A    between atoms: _23  and  _25
REMARK    9  A    between atoms: _25  and  _26
REMARK   10  A    between atoms: _25  and  _28
REMARK   11  A    between atoms: _28  and  _29
REMARK   12  A    between atoms: _32  and  _34
REMARK   13  A    between atoms: _34  and  _35
REMARK   14  A    between atoms: _34  and  _37
REMARK   15  A    between atoms: _37  and  _38
REMARK   16  A    between atoms: _44  and  _46
REMARK   17  A    between atoms: _46  and  _47
REMARK   18  A    between atoms: _46  and  _49
REMARK   19  A    between atoms: _49  and  _50
REMARK   20  A    between atoms: _55  and  _56
REMARK   21  A    between atoms: _58  and  _60
REMARK   22  A    between atoms: _60  and  _61
REMARK   23  A    between atoms: _64  and  _66
REMARK   24  A    between atoms: _66  and  _67
REMARK   25  A    between atoms: _66  and  _69
REMARK   26  A    between atoms: _69  and  _70
REMARK   27  A    between atoms: _73  and  _75
REMARK   28  A    between atoms: _75  and  _76
REMARK   29  A    between atoms: _75  and  _78
REMARK   30  A    between atoms: _78  and  _79
REMARK   31  A    between atoms: _79  and  _80
REMARK   32  A    between atoms: _83  and  _85
REMARK   33  A    between atoms: _85  and  _86
REMARK   34  A    between atoms: _85  and  _88
REMARK   35  A    between atoms: _88  and  _89
REMARK   36  A    between atoms: _92  and  _94
REMARK   37  A    between atoms: _94  and  _95
REMARK   38  A    between atoms: _94  and  _97
REMARK   39  A    between atoms: _97  and  _98
REMARK   40  A    between atoms: _98  and  _99
REMARK   41  A    between atoms: _99  and  _100
REMARK   42  A    between atoms: _100  and  _101
REMARK   43  A    between atoms: _105  and  _107
REMARK   44  A    between atoms: _107  and  _108
REMARK   45  A    between atoms: _107  and  _110
REMARK   46  A    between atoms: _113  and  _115
REMARK   47  A    between atoms: _115  and  _116
REMARK   48  A    between atoms: _115  and  _118
REMARK   49  A    between atoms: _118  and  _119
REMARK   50  A    between atoms: _119  and  _120
REMARK   51  A    between atoms: _120  and  _121
REMARK   52  A    between atoms: _121  and  _122
REMARK   53  A    between atoms: _126  and  _128
REMARK   54  A    between atoms: _128  and  _129
REMARK   55  A    between atoms: _128  and  _131
REMARK   56  A    between atoms: _133  and  _135
REMARK   57  A    between atoms: _135  and  _136
REMARK   58  A    between atoms: _138  and  _140
REMARK   59  A    between atoms: _140  and  _141
REMARK   60  A    between atoms: _143  and  _145
REMARK   61  A    between atoms: _145  and  _146
REMARK   62  A    between atoms: _148  and  _150
REMARK   63  A    between atoms: _150  and  _151
REMARK   64  A    between atoms: _150  and  _153
REMARK   65  A    between atoms: _153  and  _154
REMARK   66  A    between atoms: _157  and  _159
REMARK   67  A    between atoms: _159  and  _160
REMARK   68  A    between atoms: _159  and  _162
REMARK   69  A    between atoms: _162  and  _163
REMARK   70  A    between atoms: _166  and  _168
REMARK   71  A    between atoms: _168  and  _169
REMARK   72  A    between atoms: _168  and  _171
REMARK   73  A    between atoms: _171  and  _172
REMARK   74  A    between atoms: _175  and  _177
REMARK   75  A    between atoms: _177  and  _178
REMARK   76  A    between atoms: _177  and  _180
REMARK   77  A    between atoms: _180  and  _181
REMARK   78  A    between atoms: _191  and  _193
REMARK   79  A    between atoms: _193  and  _194
REMARK   80  A    between atoms: _193  and  _196
REMARK   81  A    between atoms: _196  and  _197
REMARK   82  A    between atoms: _197  and  _198
REMARK   83  A    between atoms: _198  and  _199
REMARK   84  A    between atoms: _199  and  _200
REMARK   85  A    between atoms: _205  and  _206
REMARK   86  A    between atoms: _211  and  _213
REMARK   87  A    between atoms: _213  and  _214
REMARK   88  A    between atoms: _213  and  _216
REMARK   89  A    between atoms: _216  and  _217
REMARK   90  A    between atoms: _217  and  _218
REMARK   91  A    between atoms: _221  and  _223
REMARK   92  A    between atoms: _223  and  _224
REMARK   93  A    between atoms: _223  and  _226
REMARK   94  A    between atoms: _226  and  _227
REMARK   95  A    between atoms: _231  and  _232
REMARK   96  A    between atoms: _237  and  _239
REMARK   97  A    between atoms: _239  and  _240
REMARK   98  A    between atoms: _239  and  _242
REMARK   99  A    between atoms: _242  and  _243
REMARK  100  A    between atoms: _243  and  _244
REMARK  101  A    between atoms: _247  and  _249
REMARK  102  A    between atoms: _249  and  _250
REMARK  103  A    between atoms: _249  and  _252
REMARK  104  A    between atoms: _252  and  _253
REMARK  105  A    between atoms: _253  and  _254
REMARK  106  A    between atoms: _259  and  _261
REMARK  107  A    between atoms: _261  and  _262
REMARK  108  A    between atoms: _261  and  _264
REMARK  109  A    between atoms: _264  and  _265
REMARK  110  A    between atoms: _270  and  _272
REMARK  111  A    between atoms: _272  and  _273
REMARK  112  A    between atoms: _272  and  _275
REMARK  113  A    between atoms: _275  and  _276
REMARK  114  A    between atoms: _276  and  _277
REMARK  115  A    between atoms: _277  and  _278
REMARK  116  A    between atoms: _278  and  _279
REMARK  117  A    between atoms: _283  and  _285
REMARK  118  A    between atoms: _285  and  _286
REMARK  119  A    between atoms: _285  and  _288
REMARK  120  A    between atoms: _288  and  _289
REMARK  121  A    between atoms: _299  and  _301
REMARK  122  A    between atoms: _301  and  _302
REMARK  123  A    between atoms: _301  and  _304
REMARK  124  A    between atoms: _304  and  _305
REMARK  125  A    between atoms: _310  and  _311
REMARK                            x       y       z     vdW  Elec       q    Type
REMARK                         _______ _______ _______ _____ _____    ______ ____
ROOT
ATOM      1  CA  GLU A   1       3.946   5.179  22.764  0.00  0.00    +0.134 C 
ENDROOT
BRANCH   1   2
ATOM      2  N   GLU A   1       4.524   5.232  21.434  0.00  0.00    -0.239 NA
ATOM      3  H   GLU A   1       5.297   5.904  21.253  0.00  0.00    +0.142 HD
ENDBRANCH   1   2
BRANCH   1   4
ATOM      4  C   GLU A   1       3.531   6.597  23.132  0.00  0.00    +0.224 C 
ATOM      5  O   GLU A   1       4.303   7.346  23.735  0.00  0.00    -0.287 OA
ENDBRANCH   1   4
BRANCH   1   6
ATOM      6  CB  GLU A   1       4.980   4.668  23.769  0.00  0.00    +0.037 C 
BRANCH   6   7
ATOM      7  CG  GLU A   1       5.423   3.227  23.550  0.00  0.00    +0.116 C 
BRANCH   7   8
ATOM      8  CD  GLU A   1       6.738   2.896  24.258  0.00  0.00    +0.365 C 
ATOM      9  OE2 GLU A   1       6.953   3.382  25.392  0.00  0.00    -0.246 OA
ATOM     10  OE1 GLU A   1       7.554   2.139  23.682  0.00  0.00    -0.246 OA
ENDBRANCH   7   8
ENDBRANCH   6   7
ENDBRANCH   1   6
TORSDOF 5
REMARK  Name = ../refined-set-2016/2vsl/2vsl_pocket.pdb
REMARK  125 active torsions:
REMARK  status: ('A' for Active; 'I' for Inactive)
REMARK    1  A    between atoms: _1  and  _5
REMARK    2  A    between atoms: _5  and  _6
REMARK    3  A    between atoms: _5  and  _8
REMARK    4  A    between atoms: _8  and  _9
REMARK    5  A    between atoms: _15  and  _17
REMARK    6  A    between atoms: _17  and  _18
REMARK    7  A    between atoms: _17  and  _20
REMARK    8  A    between atoms: _23  and  _25
REMARK    9  A    between atoms: _25  and  _26
REMARK   10  A    between atoms: _25  and  _28
REMARK   11  A    between atoms: _28  and  _29
REMARK   12  A    between atoms: _32  and  _34
REMARK   13  A    between atoms: _34  and  _35
REMARK   14  A    between atoms: _34  and  _37
REMARK   15  A    between atoms: _37  and  _38
REMARK   16  A    between atoms: _44  and  _46
REMARK   17  A    between atoms: _46  and  _47
REMARK   18  A    between atoms: _46  and  _49
REMARK   19  A    between atoms: _49  and  _50
REMARK   20  A    between atoms: _55  and  _56
REMARK   21  A    between atoms: _58  and  _60
REMARK   22  A    between atoms: _60  and  _61
REMARK   23  A    between atoms: _64  and  _66
REMARK   24  A    between atoms: _66  and  _67
REMARK   25  A    between atoms: _66  and  _69
REMARK   26  A    between atoms: _69  and  _70
REMARK   27  A    between atoms: _73  and  _75
REMARK   28  A    between atoms: _75  and  _76
REMARK   29  A    between atoms: _75  and  _78
REMARK   30  A    between atoms: _78  and  _79
REMARK   31  A    between atoms: _79  and  _80
REMARK   32  A    between atoms: _83  and  _85
REMARK   33  A    between atoms: _85  and  _86
REMARK   34  A    between atoms: _85  and  _88
REMARK   35  A    between atoms: _88  and  _89
REMARK   36  A    between atoms: _92  and  _94
REMARK   37  A    between atoms: _94  and  _95
REMARK   38  A    between atoms: _94  and  _97
REMARK   39  A    between atoms: _97  and  _98
REMARK   40  A    between atoms: _98  and  _99
REMARK   41  A    between atoms: _99  and  _100
REMARK   42  A    between atoms: _100  and  _101
REMARK   43  A    between atoms: _105  and  _107
REMARK   44  A    between atoms: _107  and  _108
REMARK   45  A    between atoms: _107  and  _110
REMARK   46  A    between atoms: _113  and  _115
REMARK   47  A    between atoms: _115  and  _116
REMARK   48  A    between atoms: _115  and  _118
REMARK   49  A    between atoms: _118  and  _119
REMARK   50  A    between atoms: _119  and  _120
REMARK   51  A    between atoms: _120  and  _121
REMARK   52  A    between atoms: _121  and  _122
REMARK   53  A    between atoms: _126  and  _128
REMARK   54  A    between atoms: _128  and  _129
REMARK   55  A    between atoms: _128  and  _131
REMARK   56  A    between atoms: _133  and  _135
REMARK   57  A    between atoms: _135  and  _136
REMARK   58  A    between atoms: _138  and  _140
REMARK   59  A    between atoms: _140  and  _141
REMARK   60  A    between atoms: _143  and  _145
REMARK   61  A    between atoms: _145  and  _146
REMARK   62  A    between atoms: _148  and  _150
REMARK   63  A    between atoms: _150  and  _151
REMARK   64  A    between atoms: _150  and  _153
REMARK   65  A    between atoms: _153  and  _154
REMARK   66  A    between atoms: _157  and  _159
REMARK   67  A    between atoms: _159  and  _160
REMARK   68  A    between atoms: _159  and  _162
REMARK   69  A    between atoms: _162  and  _163
REMARK   70  A    between atoms: _166  and  _168
REMARK   71  A    between atoms: _168  and  _169
REMARK   72  A    between atoms: _168  and  _171
REMARK   73  A    between atoms: _171  and  _172
REMARK   74  A    between atoms: _175  and  _177
REMARK   75  A    between atoms: _177  and  _178
REMARK   76  A    between atoms: _177  and  _180
REMARK   77  A    between atoms: _180  and  _181
REMARK   78  A    between atoms: _191  and  _193
REMARK   79  A    between atoms: _193  and  _194
REMARK   80  A    between atoms: _193  and  _196
REMARK   81  A    between atoms: _196  and  _197
REMARK   82  A    between atoms: _197  and  _198
REMARK   83  A    between atoms: _198  and  _199
REMARK   84  A    between atoms: _199  and  _200
REMARK   85  A    between atoms: _205  and  _206
REMARK   86  A    between atoms: _211  and  _213
REMARK   87  A    between atoms: _213  and  _214
REMARK   88  A    between atoms: _213  and  _216
REMARK   89  A    between atoms: _216  and  _217
REMARK   90  A    between atoms: _217  and  _218
REMARK   91  A    between atoms: _221  and  _223
REMARK   92  A    between atoms: _223  and  _224
REMARK   93  A    between atoms: _223  and  _226
REMARK   94  A    between atoms: _226  and  _227
REMARK   95  A    between atoms: _231  and  _232
REMARK   96  A    between atoms: _237  and  _239
REMARK   97  A    between atoms: _239  and  _240
REMARK   98  A    between atoms: _239  and  _242
REMARK   99  A    between atoms: _242  and  _243
REMARK  100  A    between atoms: _243  and  _244
REMARK  101  A    between atoms: _247  and  _249
REMARK  102  A    between atoms: _249  and  _250
REMARK  103  A    between atoms: _249  and  _252
REMARK  104  A    between atoms: _252  and  _253
REMARK  105  A    between atoms: _253  and  _254
REMARK  106  A    between atoms: _259  and  _261
REMARK  107  A    between atoms: _261  and  _262
REMARK  108  A    between atoms: _261  and  _264
REMARK  109  A    between atoms: _264  and  _265
REMARK  110  A    between atoms: _270  and  _272
REMARK  111  A    between atoms: _272  and  _273
REMARK  112  A    between atoms: _272  and  _275
REMARK  113  A    between atoms: _275  and  _276
REMARK  114  A    between atoms: _276  and  _277
REMARK  115  A    between atoms: _277  and  _278
REMARK  116  A    between atoms: _278  and  _279
REMARK  117  A    between atoms: _283  and  _285
REMARK  118  A    between atoms: _285  and  _286
REMARK  119  A    between atoms: _285  and  _288
REMARK  120  A    between atoms: _288  and  _289
REMARK  121  A    between atoms: _299  and  _301
REMARK  122  A    between atoms: _301  and  _302
REMARK  123  A    between atoms: _301  and  _304
REMARK  124  A    between atoms: _304  and  _305
REMARK  125  A    between atoms: _310  and  _311
REMARK                            x       y       z     vdW  Elec       q    Type
REMARK                         _______ _______ _______ _____ _____    ______ ____
ROOT
ATOM      1  CA  VAL A   3      10.205  10.521  21.328  0.00  0.00    +0.149 C 
ENDROOT
BRANCH   1   3
ATOM      2  C   LYS A   2       8.094   9.819  22.304  0.00  0.00    +0.241 C 
ATOM      3  N   VAL A   3       9.210  10.535  22.394  0.00  0.00    -0.297 N 
ATOM      4  H   VAL A   3       9.377  11.116  23.240  0.00  0.00    +0.150 HD
ATOM      5  O   LYS A   2       7.810   9.140  21.314  0.00  0.00    -0.273 OA
BRANCH   2   6
ATOM      6  CA  LYS A   2       7.154   9.887  23.501  0.00  0.00    +0.149 C 
BRANCH   6   8
ATOM      7  C   ASP A   1       5.380  11.277  22.571  0.00  0.00    +0.239 C 
ATOM      8  N   LYS A   2       5.773  10.113  23.081  0.00  0.00    -0.297 N 
ATOM      9  H   LYS A   2       5.080   9.344  23.183  0.00  0.00    +0.150 HD
ATOM     10  O   ASP A   1       6.138  12.246  22.435  0.00  0.00    -0.274 OA
BRANCH   7  11
ATOM     11  CA  ASP A   1       3.914  11.360  22.155  0.00  0.00    +0.156 C 
BRANCH  11  12
ATOM     12  N   ASP A   1       3.115  10.384  22.874  0.00  0.00    -0.238 NA
ATOM     13  H   ASP A   1       2.877  10.543  23.874  0.00  0.00    +0.142 HD
ENDBRANCH  11  12
BRANCH  11  14
ATOM     14  CB  ASP A   1       3.353  12.778  22.368  0.00  0.00    +0.140 C 
BRANCH  14  15
ATOM     15  CG  ASP A   1       3.570  13.304  23.775  0.00  0.00    +0.367 C 
ATOM     16  OD2 ASP A   1       3.993  12.534  24.665  0.00  0.00    -0.246 OA
ATOM     17  OD1 ASP A   1       3.310  14.508  23.993  0.00  0.00    -0.246 OA
ENDBRANCH  14  15
ENDBRANCH  11  14
ENDBRANCH   7  11
ENDBRANCH   6   8
BRANCH   6  18
ATOM     18  CB  LYS A   2       7.282   8.579  24.278  0.00  0.00    +0.029 C 
BRANCH  18  19
ATOM     19  CG  LYS A   2       6.750   8.620  25.685  0.00  0.00    +0.000 C 
BRANCH  19  20
ATOM     20  CD  LYS A   2       7.101   7.327  26.396  0.00  0.00    -0.024 C 
BRANCH  20  21
ATOM     21  CE  LYS A   2       6.760   7.386  27.867  0.00  0.00    -0.086 C 
BRANCH  21  22
ATOM     22  NZ  LYS A   2       7.185   6.130  28.551  0.00  0.00    +0.380 N 
ATOM     23  HZ1 LYS A   2       6.943   6.188  29.561  0.00  0.00    -0.089 HD
ATOM     24  HZ2 LYS A   2       8.213   6.010  28.446  0.00  0.00    -0.089 HD
ATOM     25  HZ3 LYS A   2       6.694   5.320  28.122  0.00  0.00    -0.089 HD
ENDBRANCH  21  22
ENDBRANCH  20  21
ENDBRANCH  19  20
ENDBRANCH  18  19
ENDBRANCH   6  18
ENDBRANCH   2   6
ENDBRANCH   1   3
BRANCH   1  26
ATOM     26  C   VAL A   3      11.580  10.439  21.973  0.00  0.00    +0.241 C 
ATOM     27  O   VAL A   3      11.738  10.747  23.153  0.00  0.00    -0.273 OA
ATOM     28  N   LYS A   4      12.567  10.000  21.203  0.00  0.00    -0.297 N 
ATOM     29  H   LYS A   4      12.365   9.721  20.222  0.00  0.00    +0.150 HD
BRANCH  28  30
ATOM     30  CA  LYS A   4      13.926   9.903  21.708  0.00  0.00    +0.149 C 
BRANCH  30  31
ATOM     31  C   LYS A   4      14.903  10.366  20.648  0.00  0.00    +0.241 C 
ATOM     32  N   CYS A   5      16.018  10.934  21.102  0.00  0.00    -0.297 N 
ATOM     33  H   CYS A   5      16.150  11.057  22.126  0.00  0.00    +0.150 HD
ATOM     34  O   LYS A   4      14.647  10.228  19.446  0.00  0.00    -0.273 OA
BRANCH  32  35
ATOM     35  CA  CYS A   5      17.052  11.384  20.189  0.00  0.00    +0.149 C 
BRANCH  35  36
ATOM     36  C   CYS A   5      17.896  10.170  19.823  0.00  0.00    +0.228 C 
ATOM     37  O   CYS A   5      18.337   9.426  20.696  0.00  0.00    -0.286 OA
ENDBRANCH  35  36
BRANCH  35  38
ATOM     38  CB  CYS A   5      17.949  12.438  20.853  0.00  0.00    +0.096 C 
ATOM     39  SG  CYS A   5      19.376  12.871  19.839  0.00  0.00    -0.080 S 
ENDBRANCH  35  38
ENDBRANCH  32  35
ENDBRANCH  30  31
BRANCH  30  40
ATOM     40  CB  LYS A   4      14.263   8.460  22.111  0.00  0.00    +0.029 C 
BRANCH  40  41
ATOM     41  CG  LYS A   4      13.640   8.030  23.425  0.00  0.00    +0.000 C 
BRANCH  41  42
ATOM     42  CD  LYS A   4      13.946   6.576  23.750  0.00  0.00    -0.024 C 
BRANCH  42  43
ATOM     43  CE  LYS A   4      15.430   6.344  23.918  0.00  0.00    -0.086 C 
BRANCH  43  44
ATOM     44  NZ  LYS A   4      15.694   5.043  24.589  0.00  0.00    +0.380 N 
ATOM     45  HZ1 LYS A   4      15.247   5.042  25.528  0.00  0.00    -0.089 HD
ATOM     46  HZ2 LYS A   4      16.720   4.909  24.692  0.00  0.00    -0.089 HD
ATOM     47  HZ3 LYS A   4      15.298   4.272  24.015  0.00  0.00    -0.089 HD
ENDBRANCH  43  44
ENDBRANCH  42  43
ENDBRANCH  41  42
ENDBRANCH  40  41
ENDBRANCH  30  40
ENDBRANCH  28  30
ENDBRANCH   1  26
BRANCH   1  48
ATOM     48  CB  VAL A   3      10.144  11.796  20.446  0.00  0.00    +0.027 C 
ATOM     49  CG2 VAL A   3      10.446  13.040  21.289  0.00  0.00    +0.002 C 
ATOM     50  CG1 VAL A   3       8.787  11.908  19.786  0.00  0.00    +0.002 C 
ENDBRANCH   1  48
TORSDOF 24
REMARK  Name = ../refined-set-2016/2vsl/2vsl_pocket.pdb
REMARK  125 active torsions:
REMARK  status: ('A' for Active; 'I' for Inactive)
REMARK    1  A    between atoms: _1  and  _5
REMARK    2  A    between atoms: _5  and  _6
REMARK    3  A    between atoms: _5  and  _8
REMARK    4  A    between atoms: _8  and  _9
REMARK    5  A    between atoms: _15  and  _17
REMARK    6  A    between atoms: _17  and  _18
REMARK    7  A    between atoms: _17  and  _20
REMARK    8  A    between atoms: _23  and  _25
REMARK    9  A    between atoms: _25  and  _26
REMARK   10  A    between atoms: _25  and  _28
REMARK   11  A    between atoms: _28  and  _29
REMARK   12  A    between atoms: _32  and  _34
REMARK   13  A    between atoms: _34  and  _35
REMARK   14  A    between atoms: _34  and  _37
REMARK   15  A    between atoms: _37  and  _38
REMARK   16  A    between atoms: _44  and  _46
REMARK   17  A    between atoms: _46  and  _47
REMARK   18  A    between atoms: _46  and  _49
REMARK   19  A    between atoms: _49  and  _50
REMARK   20  A    between atoms: _55  and  _56
REMARK   21  A    between atoms: _58  and  _60
REMARK   22  A    between atoms: _60  and  _61
REMARK   23  A    between atoms: _64  and  _66
REMARK   24  A    between atoms: _66  and  _67
REMARK   25  A    between atoms: _66  and  _69
REMARK   26  A    between atoms: _69  and  _70
REMARK   27  A    between atoms: _73  and  _75
REMARK   28  A    between atoms: _75  and  _76
REMARK   29  A    between atoms: _75  and  _78
REMARK   30  A    between atoms: _78  and  _79
REMARK   31  A    between atoms: _79  and  _80
REMARK   32  A    between atoms: _83  and  _85
REMARK   33  A    between atoms: _85  and  _86
REMARK   34  A    between atoms: _85  and  _88
REMARK   35  A    between atoms: _88  and  _89
REMARK   36  A    between atoms: _92  and  _94
REMARK   37  A    between atoms: _94  and  _95
REMARK   38  A    between atoms: _94  and  _97
REMARK   39  A    between atoms: _97  and  _98
REMARK   40  A    between atoms: _98  and  _99
REMARK   41  A    between atoms: _99  and  _100
REMARK   42  A    between atoms: _100  and  _101
REMARK   43  A    between atoms: _105  and  _107
REMARK   44  A    between atoms: _107  and  _108
REMARK   45  A    between atoms: _107  and  _110
REMARK   46  A    between atoms: _113  and  _115
REMARK   47  A    between atoms: _115  and  _116
REMARK   48  A    between atoms: _115  and  _118
REMARK   49  A    between atoms: _118  and  _119
REMARK   50  A    between atoms: _119  and  _120
REMARK   51  A    between atoms: _120  and  _121
REMARK   52  A    between atoms: _121  and  _122
REMARK   53  A    between atoms: _126  and  _128
REMARK   54  A    between atoms: _128  and  _129
REMARK   55  A    between atoms: _128  and  _131
REMARK   56  A    between atoms: _133  and  _135
REMARK   57  A    between atoms: _135  and  _136
REMARK   58  A    between atoms: _138  and  _140
REMARK   59  A    between atoms: _140  and  _141
REMARK   60  A    between atoms: _143  and  _145
REMARK   61  A    between atoms: _145  and  _146
REMARK   62  A    between atoms: _148  and  _150
REMARK   63  A    between atoms: _150  and  _151
REMARK   64  A    between atoms: _150  and  _153
REMARK   65  A    between atoms: _153  and  _154
REMARK   66  A    between atoms: _157  and  _159
REMARK   67  A    between atoms: _159  and  _160
REMARK   68  A    between atoms: _159  and  _162
REMARK   69  A    between atoms: _162  and  _163
REMARK   70  A    between atoms: _166  and  _168
REMARK   71  A    between atoms: _168  and  _169
REMARK   72  A    between atoms: _168  and  _171
REMARK   73  A    between atoms: _171  and  _172
REMARK   74  A    between atoms: _175  and  _177
REMARK   75  A    between atoms: _177  and  _178
REMARK   76  A    between atoms: _177  and  _180
REMARK   77  A    between atoms: _180  and  _181
REMARK   78  A    between atoms: _191  and  _193
REMARK   79  A    between atoms: _193  and  _194
REMARK   80  A    between atoms: _193  and  _196
REMARK   81  A    between atoms: _196  and  _197
REMARK   82  A    between atoms: _197  and  _198
REMARK   83  A    between atoms: _198  and  _199
REMARK   84  A    between atoms: _199  and  _200
REMARK   85  A    between atoms: _205  and  _206
REMARK   86  A    between atoms: _211  and  _213
REMARK   87  A    between atoms: _213  and  _214
REMARK   88  A    between atoms: _213  and  _216
REMARK   89  A    between atoms: _216  and  _217
REMARK   90  A    between atoms: _217  and  _218
REMARK   91  A    between atoms: _221  and  _223
REMARK   92  A    between atoms: _223  and  _224
REMARK   93  A    between atoms: _223  and  _226
REMARK   94  A    between atoms: _226  and  _227
REMARK   95  A    between atoms: _231  and  _232
REMARK   96  A    between atoms: _237  and  _239
REMARK   97  A    between atoms: _239  and  _240
REMARK   98  A    between atoms: _239  and  _242
REMARK   99  A    between atoms: _242  and  _243
REMARK  100  A    between atoms: _243  and  _244
REMARK  101  A    between atoms: _247  and  _249
REMARK  102  A    between atoms: _249  and  _250
REMARK  103  A    between atoms: _249  and  _252
REMARK  104  A    between atoms: _252  and  _253
REMARK  105  A    between atoms: _253  and  _254
REMARK  106  A    between atoms: _259  and  _261
REMARK  107  A    between atoms: _261  and  _262
REMARK  108  A    between atoms: _261  and  _264
REMARK  109  A    between atoms: _264  and  _265
REMARK  110  A    between atoms: _270  and  _272
REMARK  111  A    between atoms: _272  and  _273
REMARK  112  A    between atoms: _272  and  _275
REMARK  113  A    between atoms: _275  and  _276
REMARK  114  A    between atoms: _276  and  _277
REMARK  115  A    between atoms: _277  and  _278
REMARK  116  A    between atoms: _278  and  _279
REMARK  117  A    between atoms: _283  and  _285
REMARK  118  A    between atoms: _285  and  _286
REMARK  119  A    between atoms: _285  and  _288
REMARK  120  A    between atoms: _288  and  _289
REMARK  121  A    between atoms: _299  and  _301
REMARK  122  A    between atoms: _301  and  _302
REMARK  123  A    between atoms: _301  and  _304
REMARK  124  A    between atoms: _304  and  _305
REMARK  125  A    between atoms: _310  and  _311
REMARK                            x       y       z     vdW  Elec       q    Type
REMARK                         _______ _______ _______ _____ _____    ______ ____
ROOT
ATOM      1  CA  ASP A   6       4.088  15.552  27.139  0.00  0.00    +0.160 C 
ENDROOT
BRANCH   1   2
ATOM      2  C   ASP A   6       4.450  16.877  26.469  0.00  0.00    +0.241 C 
ATOM      3  O   ASP A   6       4.728  17.869  27.141  0.00  0.00    -0.273 OA
ATOM      4  N   TRP A   7       4.449  16.880  25.142  0.00  0.00    -0.297 N 
ATOM      5  H   TRP A   7       4.201  16.006  24.635  0.00  0.00    +0.150 HD
BRANCH   4   6
ATOM      6  CA  TRP A   7       4.784  18.070  24.375  0.00  0.00    +0.153 C 
BRANCH   6   7
ATOM      7  C   TRP A   7       3.660  19.096  24.364  0.00  0.00    +0.241 C 
ATOM      8  O   TRP A   7       2.482  18.745  24.423  0.00  0.00    -0.273 OA
ATOM      9  N   LYS A   8       4.034  20.368  24.284  0.00  0.00    -0.297 N 
ATOM     10  H   LYS A   8       5.047  20.601  24.268  0.00  0.00    +0.150 HD
BRANCH   9  11
ATOM     11  CA  LYS A   8       3.055  21.440  24.218  0.00  0.00    +0.149 C 
BRANCH  11  12
ATOM     12  C   LYS A   8       2.951  21.820  22.747  0.00  0.00    +0.244 C 
ATOM     13  N   PRO A   9       1.776  22.294  22.320  0.00  0.00    -0.273 N 
ATOM     14  CD  PRO A   9       0.614  22.562  23.187  0.00  0.00    +0.094 C 
ATOM     15  CG  PRO A   9      -0.502  22.735  22.186  0.00  0.00    +0.024 C 
ATOM     16  CB  PRO A   9       0.182  23.465  21.075  0.00  0.00    +0.030 C 
ATOM     17  CA  PRO A   9       1.494  22.699  20.939  0.00  0.00    +0.140 C 
ATOM     18  O   LYS A   8       3.915  21.687  21.994  0.00  0.00    -0.273 OA
BRANCH  17  19
ATOM     19  C   PRO A   9       2.562  23.516  20.208  0.00  0.00    +0.227 C 
ATOM     20  O   PRO A   9       2.989  23.145  19.113  0.00  0.00    -0.286 OA
ENDBRANCH  17  19
ENDBRANCH  11  12
BRANCH  11  21
ATOM     21  CB  LYS A   8       3.504  22.640  25.051  0.00  0.00    +0.029 C 
BRANCH  21  22
ATOM     22  CG  LYS A   8       3.847  22.294  26.491  0.00  0.00    +0.000 C 
BRANCH  22  23
ATOM     23  CD  LYS A   8       2.720  21.533  27.175  0.00  0.00    -0.024 C 
BRANCH  23  24
ATOM     24  CE  LYS A   8       1.436  22.352  27.225  0.00  0.00    -0.086 C 
BRANCH  24  25
ATOM     25  NZ  LYS A   8       0.356  21.654  27.982  0.00  0.00    +0.380 N 
ATOM     26  HZ1 LYS A   8       0.672  21.485  28.958  0.00  0.00    -0.089 HD
ATOM     27  HZ2 LYS A   8      -0.498  22.247  27.991  0.00  0.00    -0.089 HD
ATOM     28  HZ3 LYS A   8       0.144  20.745  27.523  0.00  0.00    -0.089 HD
ENDBRANCH  24  25
ENDBRANCH  23  24
ENDBRANCH  22  23
ENDBRANCH  21  22
ENDBRANCH  11  21
ENDBRANCH   9  11
ENDBRANCH   6   7
BRANCH   6  29
ATOM     29  CB  TRP A   7       5.107  17.700  22.925  0.00  0.00    +0.057 C 
BRANCH  29  30
ATOM     30  CG  TRP A   7       6.359  16.911  22.752  0.00  0.00    -0.002 A 
ATOM     31  CD1 TRP A   7       6.504  15.557  22.867  0.00  0.00    +0.068 A 
ATOM     32  NE1 TRP A   7       7.814  15.201  22.652  0.00  0.00    -0.352 N 
ATOM     33  HE1 TRP A   7       8.191  14.232  22.680  0.00  0.00    +0.166 HD
ATOM     34  CE2 TRP A   7       8.543  16.334  22.394  0.00  0.00    +0.056 A 
ATOM     35  CZ2 TRP A   7       9.904  16.486  22.118  0.00  0.00    +0.017 A 
ATOM     36  CH2 TRP A   7      10.368  17.759  21.898  0.00  0.00    +0.001 A 
ATOM     37  CZ3 TRP A   7       9.509  18.871  21.947  0.00  0.00    +0.000 A 
ATOM     38  CE3 TRP A   7       8.156  18.719  22.220  0.00  0.00    +0.001 A 
ATOM     39  CD2 TRP A   7       7.656  17.430  22.449  0.00  0.00    +0.013 A 
ENDBRANCH  29  30
ENDBRANCH   6  29
ENDBRANCH   4   6
ENDBRANCH   1   2
BRANCH   1  42
ATOM     40  C   THR A   5       6.271  14.585  26.675  0.00  0.00    +0.243 C 
ATOM     41  O   THR A   5       6.840  15.566  27.154  0.00  0.00    -0.273 OA
ATOM     42  N   ASP A   6       4.946  14.486  26.622  0.00  0.00    -0.296 N 
ATOM     43  H   ASP A   6       4.513  13.637  26.206  0.00  0.00    +0.150 HD
BRANCH  40  44
ATOM     44  CA  THR A   5       7.088  13.420  26.102  0.00  0.00    +0.176 C 
BRANCH  44  46
ATOM     45  C   LEU A   4       9.418  13.321  25.370  0.00  0.00    +0.241 C 
ATOM     46  N   THR A   5       8.510  13.697  26.267  0.00  0.00    -0.295 N 
ATOM     47  H   THR A   5       8.826  14.207  27.117  0.00  0.00    +0.150 HD
ATOM     48  O   LEU A   4       9.139  12.715  24.332  0.00  0.00    -0.273 OA
BRANCH  45  49
ATOM     49  CA  LEU A   4      10.860  13.691  25.689  0.00  0.00    +0.149 C 
BRANCH  49  52
ATOM     50  C   GLY A   3      12.776  12.268  26.182  0.00  0.00    +0.243 C 
ATOM     51  O   GLY A   3      13.048  12.899  27.203  0.00  0.00    -0.273 OA
ATOM     52  N   LEU A   4      11.758  12.582  25.389  0.00  0.00    -0.297 N 
ATOM     53  H   LEU A   4      11.597  12.020  24.529  0.00  0.00    +0.150 HD
BRANCH  50  54
ATOM     54  CA  GLY A   3      13.612  11.080  25.752  0.00  0.00    +0.176 C 
BRANCH  54  56
ATOM     55  C   GLY A   2      15.913  11.377  25.083  0.00  0.00    +0.243 C 
ATOM     56  N   GLY A   3      15.030  11.188  26.059  0.00  0.00    -0.295 N 
ATOM     57  H   GLY A   3      15.354  11.117  27.045  0.00  0.00    +0.150 HD
ATOM     58  O   GLY A   2      15.588  11.487  23.902  0.00  0.00    -0.273 OA
BRANCH  55  59
ATOM     59  CA  GLY A   2      17.375  11.465  25.491  0.00  0.00    +0.176 C 
BRANCH  59  62
ATOM     60  C   GLY A   1      18.214   9.405  24.537  0.00  0.00    +0.240 C 
ATOM     61  O   GLY A   1      17.451   8.731  25.234  0.00  0.00    -0.274 OA
ATOM     62  N   GLY A   2      18.248  10.736  24.585  0.00  0.00    -0.295 N 
ATOM     63  H   GLY A   2      18.904  11.258  23.970  0.00  0.00    +0.150 HD
BRANCH  60  64
ATOM     64  CA  GLY A   1      19.169   8.734  23.566  0.00  0.00    +0.169 C 
BRANCH  64  65
ATOM     65  N   GLY A   1      20.138   9.658  22.999  0.00  0.00    -0.236 NA
ATOM     66  H   GLY A   1      20.014  10.005  22.026  0.00  0.00    +0.142 HD
ENDBRANCH  64  65
ENDBRANCH  60  64
ENDBRANCH  59  62
ENDBRANCH  55  59
ENDBRANCH  54  56
ENDBRANCH  50  54
ENDBRANCH  49  52
BRANCH  49  67
ATOM     67  CB  LEU A   4      11.248  14.932  24.882  0.00  0.00    +0.029 C 
BRANCH  67  68
ATOM     68  CG  LEU A   4      12.562  15.599  25.293  0.00  0.00    +0.002 C 
ATOM     69  CD2 LEU A   4      12.443  16.136  26.722  0.00  0.00    +0.000 C 
ATOM     70  CD1 LEU A   4      12.887  16.720  24.310  0.00  0.00    +0.000 C 
ENDBRANCH  67  68
ENDBRANCH  49  67
ENDBRANCH  45  49
ENDBRANCH  44  46
BRANCH  44  71
ATOM     71  CB  THR A   5       6.702  12.103  26.819  0.00  0.00    +0.137 C 
ATOM     72  CG2 THR A   5       6.815  12.255  28.333  0.00  0.00    +0.034 C 
BRANCH  71  73
ATOM     73  OG1 THR A   5       5.358  11.753  26.475  0.00  0.00    -0.382 OA
ATOM     74  HG1 THR A   5       5.291  11.629  25.495  0.00  0.00    +0.210 HD
ENDBRANCH  71  73
ENDBRANCH  44  71
ENDBRANCH  40  44
ENDBRANCH   1  42
BRANCH   1  75
ATOM     75  CB  ASP A   6       4.269  15.684  28.654  0.00  0.00    +0.143 C 
BRANCH  75  76
ATOM     76  CG  ASP A   6       3.803  14.453  29.407  0.00  0.00    +0.367 C 
ATOM     77  OD2 ASP A   6       4.157  14.315  30.598  0.00  0.00    -0.246 OA
ATOM     78  OD1 ASP A   6       3.075  13.625  28.812  0.00  0.00    -0.246 OA
ENDBRANCH  75  76
ENDBRANCH   1  75
TORSDOF 30
REMARK  Name = ../refined-set-2016/2vsl/2vsl_pocket.pdb
REMARK  125 active torsions:
REMARK  status: ('A' for Active; 'I' for Inactive)
REMARK    1  A    between atoms: _1  and  _5
REMARK    2  A    between atoms: _5  and  _6
REMARK    3  A    between atoms: _5  and  _8
REMARK    4  A    between atoms: _8  and  _9
REMARK    5  A    between atoms: _15  and  _17
REMARK    6  A    between atoms: _17  and  _18
REMARK    7  A    between atoms: _17  and  _20
REMARK    8  A    between atoms: _23  and  _25
REMARK    9  A    between atoms: _25  and  _26
REMARK   10  A    between atoms: _25  and  _28
REMARK   11  A    between atoms: _28  and  _29
REMARK   12  A    between atoms: _32  and  _34
REMARK   13  A    between atoms: _34  and  _35
REMARK   14  A    between atoms: _34  and  _37
REMARK   15  A    between atoms: _37  and  _38
REMARK   16  A    between atoms: _44  and  _46
REMARK   17  A    between atoms: _46  and  _47
REMARK   18  A    between atoms: _46  and  _49
REMARK   19  A    between atoms: _49  and  _50
REMARK   20  A    between atoms: _55  and  _56
REMARK   21  A    between atoms: _58  and  _60
REMARK   22  A    between atoms: _60  and  _61
REMARK   23  A    between atoms: _64  and  _66
REMARK   24  A    between atoms: _66  and  _67
REMARK   25  A    between atoms: _66  and  _69
REMARK   26  A    between atoms: _69  and  _70
REMARK   27  A    between atoms: _73  and  _75
REMARK   28  A    between atoms: _75  and  _76
REMARK   29  A    between atoms: _75  and  _78
REMARK   30  A    between atoms: _78  and  _79
REMARK   31  A    between atoms: _79  and  _80
REMARK   32  A    between atoms: _83  and  _85
REMARK   33  A    between atoms: _85  and  _86
REMARK   34  A    between atoms: _85  and  _88
REMARK   35  A    between atoms: _88  and  _89
REMARK   36  A    between atoms: _92  and  _94
REMARK   37  A    between atoms: _94  and  _95
REMARK   38  A    between atoms: _94  and  _97
REMARK   39  A    between atoms: _97  and  _98
REMARK   40  A    between atoms: _98  and  _99
REMARK   41  A    between atoms: _99  and  _100
REMARK   42  A    between atoms: _100  and  _101
REMARK   43  A    between atoms: _105  and  _107
REMARK   44  A    between atoms: _107  and  _108
REMARK   45  A    between atoms: _107  and  _110
REMARK   46  A    between atoms: _113  and  _115
REMARK   47  A    between atoms: _115  and  _116
REMARK   48  A    between atoms: _115  and  _118
REMARK   49  A    between atoms: _118  and  _119
REMARK   50  A    between atoms: _119  and  _120
REMARK   51  A    between atoms: _120  and  _121
REMARK   52  A    between atoms: _121  and  _122
REMARK   53  A    between atoms: _126  and  _128
REMARK   54  A    between atoms: _128  and  _129
REMARK   55  A    between atoms: _128  and  _131
REMARK   56  A    between atoms: _133  and  _135
REMARK   57  A    between atoms: _135  and  _136
REMARK   58  A    between atoms: _138  and  _140
REMARK   59  A    between atoms: _140  and  _141
REMARK   60  A    between atoms: _143  and  _145
REMARK   61  A    between atoms: _145  and  _146
REMARK   62  A    between atoms: _148  and  _150
REMARK   63  A    between atoms: _150  and  _151
REMARK   64  A    between atoms: _150  and  _153
REMARK   65  A    between atoms: _153  and  _154
REMARK   66  A    between atoms: _157  and  _159
REMARK   67  A    between atoms: _159  and  _160
REMARK   68  A    between atoms: _159  and  _162
REMARK   69  A    between atoms: _162  and  _163
REMARK   70  A    between atoms: _166  and  _168
REMARK   71  A    between atoms: _168  and  _169
REMARK   72  A    between atoms: _168  and  _171
REMARK   73  A    between atoms: _171  and  _172
REMARK   74  A    between atoms: _175  and  _177
REMARK   75  A    between atoms: _177  and  _178
REMARK   76  A    between atoms: _177  and  _180
REMARK   77  A    between atoms: _180  and  _181
REMARK   78  A    between atoms: _191  and  _193
REMARK   79  A    between atoms: _193  and  _194
REMARK   80  A    between atoms: _193  and  _196
REMARK   81  A    between atoms: _196  and  _197
REMARK   82  A    between atoms: _197  and  _198
REMARK   83  A    between atoms: _198  and  _199
REMARK   84  A    between atoms: _199  and  _200
REMARK   85  A    between atoms: _205  and  _206
REMARK   86  A    between atoms: _211  and  _213
REMARK   87  A    between atoms: _213  and  _214
REMARK   88  A    between atoms: _213  and  _216
REMARK   89  A    between atoms: _216  and  _217
REMARK   90  A    between atoms: _217  and  _218
REMARK   91  A    between atoms: _221  and  _223
REMARK   92  A    between atoms: _223  and  _224
REMARK   93  A    between atoms: _223  and  _226
REMARK   94  A    between atoms: _226  and  _227
REMARK   95  A    between atoms: _231  and  _232
REMARK   96  A    between atoms: _237  and  _239
REMARK   97  A    between atoms: _239  and  _240
REMARK   98  A    between atoms: _239  and  _242
REMARK   99  A    between atoms: _242  and  _243
REMARK  100  A    between atoms: _243  and  _244
REMARK  101  A    between atoms: _247  and  _249
REMARK  102  A    between atoms: _249  and  _250
REMARK  103  A    between atoms: _249  and  _252
REMARK  104  A    between atoms: _252  and  _253
REMARK  105  A    between atoms: _253  and  _254
REMARK  106  A    between atoms: _259  and  _261
REMARK  107  A    between atoms: _261  and  _262
REMARK  108  A    between atoms: _261  and  _264
REMARK  109  A    between atoms: _264  and  _265
REMARK  110  A    between atoms: _270  and  _272
REMARK  111  A    between atoms: _272  and  _273
REMARK  112  A    between atoms: _272  and  _275
REMARK  113  A    between atoms: _275  and  _276
REMARK  114  A    between atoms: _276  and  _277
REMARK  115  A    between atoms: _277  and  _278
REMARK  116  A    between atoms: _278  and  _279
REMARK  117  A    between atoms: _283  and  _285
REMARK  118  A    between atoms: _285  and  _286
REMARK  119  A    between atoms: _285  and  _288
REMARK  120  A    between atoms: _288  and  _289
REMARK  121  A    between atoms: _299  and  _301
REMARK  122  A    between atoms: _301  and  _302
REMARK  123  A    between atoms: _301  and  _304
REMARK  124  A    between atoms: _304  and  _305
REMARK  125  A    between atoms: _310  and  _311
REMARK                            x       y       z     vdW  Elec       q    Type
REMARK                         _______ _______ _______ _____ _____    ______ ____
ROOT
ATOM      1  CA  ASP A   2      10.262  23.968  19.842  0.00  0.00    +0.160 C 
ENDROOT
BRANCH   1   2
ATOM      2  C   ASP A   2      11.154  22.797  20.228  0.00  0.00    +0.244 C 
ATOM      3  O   ASP A   2      11.820  22.825  21.259  0.00  0.00    -0.273 OA
ATOM      4  N   PRO A   3      11.174  21.750  19.396  0.00  0.00    -0.273 N 
ATOM      5  CA  PRO A   3      11.983  20.552  19.642  0.00  0.00    +0.140 C 
ATOM      6  CB  PRO A   3      11.812  19.759  18.350  0.00  0.00    +0.030 C 
ATOM      7  CG  PRO A   3      10.407  20.109  17.942  0.00  0.00    +0.024 C 
ATOM      8  CD  PRO A   3      10.405  21.611  18.148  0.00  0.00    +0.094 C 
BRANCH   5   9
ATOM      9  C   PRO A   3      13.453  20.837  19.965  0.00  0.00    +0.227 C 
ATOM     10  O   PRO A   3      14.007  20.284  20.915  0.00  0.00    -0.286 OA
ENDBRANCH   5   9
ENDBRANCH   1   2
BRANCH   1  12
ATOM     11  C   GLU A   1       7.993  23.786  20.670  0.00  0.00    +0.238 C 
ATOM     12  N   ASP A   2       9.253  24.149  20.871  0.00  0.00    -0.297 N 
ATOM     13  H   ASP A   2       9.523  24.571  21.782  0.00  0.00    +0.150 HD
ATOM     14  O   GLU A   1       7.590  23.308  19.608  0.00  0.00    -0.274 OA
BRANCH  11  15
ATOM     15  CA  GLU A   1       7.052  24.010  21.841  0.00  0.00    +0.145 C 
BRANCH  15  16
ATOM     16  N   GLU A   1       5.685  24.291  21.428  0.00  0.00    -0.238 NA
ATOM     17  H   GLU A   1       4.902  23.727  21.816  0.00  0.00    +0.142 HD
ENDBRANCH  15  16
BRANCH  15  18
ATOM     18  CB  GLU A   1       7.100  22.790  22.756  0.00  0.00    +0.038 C 
BRANCH  18  19
ATOM     19  CG  GLU A   1       6.650  23.075  24.162  0.00  0.00    +0.116 C 
BRANCH  19  20
ATOM     20  CD  GLU A   1       6.980  21.947  25.110  0.00  0.00    +0.365 C 
ATOM     21  OE2 GLU A   1       7.836  22.158  25.994  0.00  0.00    -0.246 OA
ATOM     22  OE1 GLU A   1       6.395  20.853  24.968  0.00  0.00    -0.246 OA
ENDBRANCH  19  20
ENDBRANCH  18  19
ENDBRANCH  15  18
ENDBRANCH  11  15
ENDBRANCH   1  12
BRANCH   1  23
ATOM     23  CB  ASP A   2      11.112  25.228  19.676  0.00  0.00    +0.143 C 
BRANCH  23  24
ATOM     24  CG  ASP A   2      12.221  25.041  18.659  0.00  0.00    +0.367 C 
ATOM     25  OD2 ASP A   2      13.307  24.551  19.034  0.00  0.00    -0.246 OA
ATOM     26  OD1 ASP A   2      11.996  25.364  17.473  0.00  0.00    -0.246 OA
ENDBRANCH  23  24
ENDBRANCH   1  23
TORSDOF 10
REMARK  Name = ../refined-set-2016/2vsl/2vsl_pocket.pdb
REMARK  125 active torsions:
REMARK  status: ('A' for Active; 'I' for Inactive)
REMARK    1  A    between atoms: _1  and  _5
REMARK    2  A    between atoms: _5  and  _6
REMARK    3  A    between atoms: _5  and  _8
REMARK    4  A    between atoms: _8  and  _9
REMARK    5  A    between atoms: _15  and  _17
REMARK    6  A    between atoms: _17  and  _18
REMARK    7  A    between atoms: _17  and  _20
REMARK    8  A    between atoms: _23  and  _25
REMARK    9  A    between atoms: _25  and  _26
REMARK   10  A    between atoms: _25  and  _28
REMARK   11  A    between atoms: _28  and  _29
REMARK   12  A    between atoms: _32  and  _34
REMARK   13  A    between atoms: _34  and  _35
REMARK   14  A    between atoms: _34  and  _37
REMARK   15  A    between atoms: _37  and  _38
REMARK   16  A    between atoms: _44  and  _46
REMARK   17  A    between atoms: _46  and  _47
REMARK   18  A    between atoms: _46  and  _49
REMARK   19  A    between atoms: _49  and  _50
REMARK   20  A    between atoms: _55  and  _56
REMARK   21  A    between atoms: _58  and  _60
REMARK   22  A    between atoms: _60  and  _61
REMARK   23  A    between atoms: _64  and  _66
REMARK   24  A    between atoms: _66  and  _67
REMARK   25  A    between atoms: _66  and  _69
REMARK   26  A    between atoms: _69  and  _70
REMARK   27  A    between atoms: _73  and  _75
REMARK   28  A    between atoms: _75  and  _76
REMARK   29  A    between atoms: _75  and  _78
REMARK   30  A    between atoms: _78  and  _79
REMARK   31  A    between atoms: _79  and  _80
REMARK   32  A    between atoms: _83  and  _85
REMARK   33  A    between atoms: _85  and  _86
REMARK   34  A    between atoms: _85  and  _88
REMARK   35  A    between atoms: _88  and  _89
REMARK   36  A    between atoms: _92  and  _94
REMARK   37  A    between atoms: _94  and  _95
REMARK   38  A    between atoms: _94  and  _97
REMARK   39  A    between atoms: _97  and  _98
REMARK   40  A    between atoms: _98  and  _99
REMARK   41  A    between atoms: _99  and  _100
REMARK   42  A    between atoms: _100  and  _101
REMARK   43  A    between atoms: _105  and  _107
REMARK   44  A    between atoms: _107  and  _108
REMARK   45  A    between atoms: _107  and  _110
REMARK   46  A    between atoms: _113  and  _115
REMARK   47  A    between atoms: _115  and  _116
REMARK   48  A    between atoms: _115  and  _118
REMARK   49  A    between atoms: _118  and  _119
REMARK   50  A    between atoms: _119  and  _120
REMARK   51  A    between atoms: _120  and  _121
REMARK   52  A    between atoms: _121  and  _122
REMARK   53  A    between atoms: _126  and  _128
REMARK   54  A    between atoms: _128  and  _129
REMARK   55  A    between atoms: _128  and  _131
REMARK   56  A    between atoms: _133  and  _135
REMARK   57  A    between atoms: _135  and  _136
REMARK   58  A    between atoms: _138  and  _140
REMARK   59  A    between atoms: _140  and  _141
REMARK   60  A    between atoms: _143  and  _145
REMARK   61  A    between atoms: _145  and  _146
REMARK   62  A    between atoms: _148  and  _150
REMARK   63  A    between atoms: _150  and  _151
REMARK   64  A    between atoms: _150  and  _153
REMARK   65  A    between atoms: _153  and  _154
REMARK   66  A    between atoms: _157  and  _159
REMARK   67  A    between atoms: _159  and  _160
REMARK   68  A    between atoms: _159  and  _162
REMARK   69  A    between atoms: _162  and  _163
REMARK   70  A    between atoms: _166  and  _168
REMARK   71  A    between atoms: _168  and  _169
REMARK   72  A    between atoms: _168  and  _171
REMARK   73  A    between atoms: _171  and  _172
REMARK   74  A    between atoms: _175  and  _177
REMARK   75  A    between atoms: _177  and  _178
REMARK   76  A    between atoms: _177  and  _180
REMARK   77  A    between atoms: _180  and  _181
REMARK   78  A    between atoms: _191  and  _193
REMARK   79  A    between atoms: _193  and  _194
REMARK   80  A    between atoms: _193  and  _196
REMARK   81  A    between atoms: _196  and  _197
REMARK   82  A    between atoms: _197  and  _198
REMARK   83  A    between atoms: _198  and  _199
REMARK   84  A    between atoms: _199  and  _200
REMARK   85  A    between atoms: _205  and  _206
REMARK   86  A    between atoms: _211  and  _213
REMARK   87  A    between atoms: _213  and  _214
REMARK   88  A    between atoms: _213  and  _216
REMARK   89  A    between atoms: _216  and  _217
REMARK   90  A    between atoms: _217  and  _218
REMARK   91  A    between atoms: _221  and  _223
REMARK   92  A    between atoms: _223  and  _224
REMARK   93  A    between atoms: _223  and  _226
REMARK   94  A    between atoms: _226  and  _227
REMARK   95  A    between atoms: _231  and  _232
REMARK   96  A    between atoms: _237  and  _239
REMARK   97  A    between atoms: _239  and  _240
REMARK   98  A    between atoms: _239  and  _242
REMARK   99  A    between atoms: _242  and  _243
REMARK  100  A    between atoms: _243  and  _244
REMARK  101  A    between atoms: _247  and  _249
REMARK  102  A    between atoms: _249  and  _250
REMARK  103  A    between atoms: _249  and  _252
REMARK  104  A    between atoms: _252  and  _253
REMARK  105  A    between atoms: _253  and  _254
REMARK  106  A    between atoms: _259  and  _261
REMARK  107  A    between atoms: _261  and  _262
REMARK  108  A    between atoms: _261  and  _264
REMARK  109  A    between atoms: _264  and  _265
REMARK  110  A    between atoms: _270  and  _272
REMARK  111  A    between atoms: _272  and  _273
REMARK  112  A    between atoms: _272  and  _275
REMARK  113  A    between atoms: _275  and  _276
REMARK  114  A    between atoms: _276  and  _277
REMARK  115  A    between atoms: _277  and  _278
REMARK  116  A    between atoms: _278  and  _279
REMARK  117  A    between atoms: _283  and  _285
REMARK  118  A    between atoms: _285  and  _286
REMARK  119  A    between atoms: _285  and  _288
REMARK  120  A    between atoms: _288  and  _289
REMARK  121  A    between atoms: _299  and  _301
REMARK  122  A    between atoms: _301  and  _302
REMARK  123  A    between atoms: _301  and  _304
REMARK  124  A    between atoms: _304  and  _305
REMARK  125  A    between atoms: _310  and  _311
REMARK                            x       y       z     vdW  Elec       q    Type
REMARK                         _______ _______ _______ _____ _____    ______ ____
ROOT
ATOM      1  CA  GLN A   2      13.664  21.202  24.561  0.00  0.00    +0.149 C 
ENDROOT
BRANCH   1   4
ATOM      2  C   GLU A   1      14.754  23.163  23.650  0.00  0.00    +0.238 C 
ATOM      3  O   GLU A   1      15.453  23.278  24.658  0.00  0.00    -0.274 OA
ATOM      4  N   GLN A   2      13.853  22.197  23.512  0.00  0.00    -0.297 N 
ATOM      5  H   GLN A   2      13.277  22.150  22.648  0.00  0.00    +0.150 HD
BRANCH   2   6
ATOM      6  CA  GLU A   1      14.882  24.143  22.494  0.00  0.00    +0.145 C 
BRANCH   6   7
ATOM      7  N   GLU A   1      14.779  23.489  21.200  0.00  0.00    -0.238 NA
ATOM      8  H   GLU A   1      13.977  23.711  20.576  0.00  0.00    +0.142 HD
ENDBRANCH   6   7
BRANCH   6   9
ATOM      9  CB  GLU A   1      13.818  25.238  22.610  0.00  0.00    +0.038 C 
BRANCH   9  10
ATOM     10  CG  GLU A   1      13.839  25.963  23.942  0.00  0.00    +0.116 C 
BRANCH  10  11
ATOM     11  CD  GLU A   1      12.938  27.187  23.963  0.00  0.00    +0.365 C 
ATOM     12  OE2 GLU A   1      12.882  27.860  25.016  0.00  0.00    -0.246 OA
ATOM     13  OE1 GLU A   1      12.290  27.482  22.932  0.00  0.00    -0.246 OA
ENDBRANCH  10  11
ENDBRANCH   9  10
ENDBRANCH   6   9
ENDBRANCH   2   6
ENDBRANCH   1   4
BRANCH   1  14
ATOM     14  C   GLN A   2      14.844  20.237  24.578  0.00  0.00    +0.241 C 
ATOM     15  O   GLN A   2      15.251  19.749  25.635  0.00  0.00    -0.273 OA
ATOM     16  N   HIS A   3      15.394  19.972  23.397  0.00  0.00    -0.298 N 
ATOM     17  H   HIS A   3      15.000  20.416  22.543  0.00  0.00    +0.150 HD
BRANCH  16  18
ATOM     18  CA  HIS A   3      16.536  19.074  23.268  0.00  0.00    +0.143 C 
BRANCH  18  19
ATOM     19  C   HIS A   3      17.726  19.663  24.041  0.00  0.00    +0.227 C 
ATOM     20  O   HIS A   3      18.393  18.970  24.818  0.00  0.00    -0.286 OA
ENDBRANCH  18  19
BRANCH  18  21
ATOM     21  CB  HIS A   3      16.890  18.907  21.784  0.00  0.00    +0.075 C 
BRANCH  21  22
ATOM     22  CG  HIS A   3      17.731  17.702  21.493  0.00  0.00    +0.082 A 
ATOM     23  CD2 HIS A   3      18.525  16.953  22.294  0.00  0.00    +0.115 A 
ATOM     24  NE2 HIS A   3      19.037  15.938  21.524  0.00  0.00    -0.221 NA
ATOM     25  CE1 HIS A   3      18.576  16.060  20.291  0.00  0.00    +0.199 A 
ATOM     26  ND1 HIS A   3      17.788  17.120  20.245  0.00  0.00    -0.227 NA
ENDBRANCH  21  22
ENDBRANCH  18  21
ENDBRANCH  16  18
ENDBRANCH   1  14
BRANCH   1  27
ATOM     27  CB  GLN A   2      12.355  20.436  24.329  0.00  0.00    +0.039 C 
BRANCH  27  28
ATOM     28  CG  GLN A   2      11.114  21.267  24.616  0.00  0.00    +0.087 C 
BRANCH  28  29
ATOM     29  CD  GLN A   2      11.116  21.815  26.028  0.00  0.00    +0.219 C 
ATOM     30  OE1 GLN A   2      11.168  21.060  27.002  0.00  0.00    -0.275 OA
ATOM     31  NE2 GLN A   2      11.067  23.139  26.150  0.00  0.00    -0.329 N 
ATOM     32 HE21 GLN A   2      11.072  23.575  27.094  0.00  0.00    +0.145 HD
ATOM     33 HE22 GLN A   2      11.024  23.738  25.301  0.00  0.00    +0.145 HD
ENDBRANCH  28  29
ENDBRANCH  27  28
ENDBRANCH   1  27
TORSDOF 14
REMARK  Name = ../refined-set-2016/2vsl/2vsl_pocket.pdb
REMARK  125 active torsions:
REMARK  status: ('A' for Active; 'I' for Inactive)
REMARK    1  A    between atoms: _1  and  _5
REMARK    2  A    between atoms: _5  and  _6
REMARK    3  A    between atoms: _5  and  _8
REMARK    4  A    between atoms: _8  and  _9
REMARK    5  A    between atoms: _15  and  _17
REMARK    6  A    between atoms: _17  and  _18
REMARK    7  A    between atoms: _17  and  _20
REMARK    8  A    between atoms: _23  and  _25
REMARK    9  A    between atoms: _25  and  _26
REMARK   10  A    between atoms: _25  and  _28
REMARK   11  A    between atoms: _28  and  _29
REMARK   12  A    between atoms: _32  and  _34
REMARK   13  A    between atoms: _34  and  _35
REMARK   14  A    between atoms: _34  and  _37
REMARK   15  A    between atoms: _37  and  _38
REMARK   16  A    between atoms: _44  and  _46
REMARK   17  A    between atoms: _46  and  _47
REMARK   18  A    between atoms: _46  and  _49
REMARK   19  A    between atoms: _49  and  _50
REMARK   20  A    between atoms: _55  and  _56
REMARK   21  A    between atoms: _58  and  _60
REMARK   22  A    between atoms: _60  and  _61
REMARK   23  A    between atoms: _64  and  _66
REMARK   24  A    between atoms: _66  and  _67
REMARK   25  A    between atoms: _66  and  _69
REMARK   26  A    between atoms: _69  and  _70
REMARK   27  A    between atoms: _73  and  _75
REMARK   28  A    between atoms: _75  and  _76
REMARK   29  A    between atoms: _75  and  _78
REMARK   30  A    between atoms: _78  and  _79
REMARK   31  A    between atoms: _79  and  _80
REMARK   32  A    between atoms: _83  and  _85
REMARK   33  A    between atoms: _85  and  _86
REMARK   34  A    between atoms: _85  and  _88
REMARK   35  A    between atoms: _88  and  _89
REMARK   36  A    between atoms: _92  and  _94
REMARK   37  A    between atoms: _94  and  _95
REMARK   38  A    between atoms: _94  and  _97
REMARK   39  A    between atoms: _97  and  _98
REMARK   40  A    between atoms: _98  and  _99
REMARK   41  A    between atoms: _99  and  _100
REMARK   42  A    between atoms: _100  and  _101
REMARK   43  A    between atoms: _105  and  _107
REMARK   44  A    between atoms: _107  and  _108
REMARK   45  A    between atoms: _107  and  _110
REMARK   46  A    between atoms: _113  and  _115
REMARK   47  A    between atoms: _115  and  _116
REMARK   48  A    between atoms: _115  and  _118
REMARK   49  A    between atoms: _118  and  _119
REMARK   50  A    between atoms: _119  and  _120
REMARK   51  A    between atoms: _120  and  _121
REMARK   52  A    between atoms: _121  and  _122
REMARK   53  A    between atoms: _126  and  _128
REMARK   54  A    between atoms: _128  and  _129
REMARK   55  A    between atoms: _128  and  _131
REMARK   56  A    between atoms: _133  and  _135
REMARK   57  A    between atoms: _135  and  _136
REMARK   58  A    between atoms: _138  and  _140
REMARK   59  A    between atoms: _140  and  _141
REMARK   60  A    between atoms: _143  and  _145
REMARK   61  A    between atoms: _145  and  _146
REMARK   62  A    between atoms: _148  and  _150
REMARK   63  A    between atoms: _150  and  _151
REMARK   64  A    between atoms: _150  and  _153
REMARK   65  A    between atoms: _153  and  _154
REMARK   66  A    between atoms: _157  and  _159
REMARK   67  A    between atoms: _159  and  _160
REMARK   68  A    between atoms: _159  and  _162
REMARK   69  A    between atoms: _162  and  _163
REMARK   70  A    between atoms: _166  and  _168
REMARK   71  A    between atoms: _168  and  _169
REMARK   72  A    between atoms: _168  and  _171
REMARK   73  A    between atoms: _171  and  _172
REMARK   74  A    between atoms: _175  and  _177
REMARK   75  A    between atoms: _177  and  _178
REMARK   76  A    between atoms: _177  and  _180
REMARK   77  A    between atoms: _180  and  _181
REMARK   78  A    between atoms: _191  and  _193
REMARK   79  A    between atoms: _193  and  _194
REMARK   80  A    between atoms: _193  and  _196
REMARK   81  A    between atoms: _196  and  _197
REMARK   82  A    between atoms: _197  and  _198
REMARK   83  A    between atoms: _198  and  _199
REMARK   84  A    between atoms: _199  and  _200
REMARK   85  A    between atoms: _205  and  _206
REMARK   86  A    between atoms: _211  and  _213
REMARK   87  A    between atoms: _213  and  _214
REMARK   88  A    between atoms: _213  and  _216
REMARK   89  A    between atoms: _216  and  _217
REMARK   90  A    between atoms: _217  and  _218
REMARK   91  A    between atoms: _221  and  _223
REMARK   92  A    between atoms: _223  and  _224
REMARK   93  A    between atoms: _223  and  _226
REMARK   94  A    between atoms: _226  and  _227
REMARK   95  A    between atoms: _231  and  _232
REMARK   96  A    between atoms: _237  and  _239
REMARK   97  A    between atoms: _239  and  _240
REMARK   98  A    between atoms: _239  and  _242
REMARK   99  A    between atoms: _242  and  _243
REMARK  100  A    between atoms: _243  and  _244
REMARK  101  A    between atoms: _247  and  _249
REMARK  102  A    between atoms: _249  and  _250
REMARK  103  A    between atoms: _249  and  _252
REMARK  104  A    between atoms: _252  and  _253
REMARK  105  A    between atoms: _253  and  _254
REMARK  106  A    between atoms: _259  and  _261
REMARK  107  A    between atoms: _261  and  _262
REMARK  108  A    between atoms: _261  and  _264
REMARK  109  A    between atoms: _264  and  _265
REMARK  110  A    between atoms: _270  and  _272
REMARK  111  A    between atoms: _272  and  _273
REMARK  112  A    between atoms: _272  and  _275
REMARK  113  A    between atoms: _275  and  _276
REMARK  114  A    between atoms: _276  and  _277
REMARK  115  A    between atoms: _277  and  _278
REMARK  116  A    between atoms: _278  and  _279
REMARK  117  A    between atoms: _283  and  _285
REMARK  118  A    between atoms: _285  and  _286
REMARK  119  A    between atoms: _285  and  _288
REMARK  120  A    between atoms: _288  and  _289
REMARK  121  A    between atoms: _299  and  _301
REMARK  122  A    between atoms: _301  and  _302
REMARK  123  A    between atoms: _301  and  _304
REMARK  124  A    between atoms: _304  and  _305
REMARK  125  A    between atoms: _310  and  _311
REMARK                            x       y       z     vdW  Elec       q    Type
REMARK                         _______ _______ _______ _____ _____    ______ ____
ROOT
ATOM      1  CA  TRP A   2      17.275  18.621  28.872  0.00  0.00    +0.153 C 
ENDROOT
BRANCH   1   4
ATOM      2  C   LYS A   1      17.527  21.026  28.580  0.00  0.00    +0.238 C 
ATOM      3  O   LYS A   1      18.183  21.127  29.618  0.00  0.00    -0.274 OA
ATOM      4  N   TRP A   2      17.078  19.859  28.123  0.00  0.00    -0.297 N 
ATOM      5  H   TRP A   2      16.576  19.828  27.213  0.00  0.00    +0.150 HD
BRANCH   2   6
ATOM      6  CA  LYS A   1      17.212  22.260  27.736  0.00  0.00    +0.145 C 
BRANCH   6   7
ATOM      7  N   LYS A   1      17.555  22.083  26.335  0.00  0.00    -0.238 NA
ATOM      8  H   LYS A   1      16.819  22.171  25.605  0.00  0.00    +0.142 HD
ENDBRANCH   6   7
BRANCH   6   9
ATOM      9  CB  LYS A   1      15.729  22.600  27.877  0.00  0.00    +0.026 C 
BRANCH   9  10
ATOM     10  CG  LYS A   1      15.271  22.718  29.323  0.00  0.00    -0.000 C 
BRANCH  10  11
ATOM     11  CD  LYS A   1      13.792  23.072  29.422  0.00  0.00    -0.024 C 
BRANCH  11  12
ATOM     12  CE  LYS A   1      13.331  23.108  30.879  0.00  0.00    -0.086 C 
BRANCH  12  13
ATOM     13  NZ  LYS A   1      11.882  23.460  30.997  0.00  0.00    +0.380 N 
ATOM     14  HZ1 LYS A   1      11.610  23.473  32.001  0.00  0.00    -0.089 HD
ATOM     15  HZ2 LYS A   1      11.719  24.399  30.580  0.00  0.00    -0.089 HD
ATOM     16  HZ3 LYS A   1      11.312  22.752  30.492  0.00  0.00    -0.089 HD
ENDBRANCH  12  13
ENDBRANCH  11  12
ENDBRANCH  10  11
ENDBRANCH   9  10
ENDBRANCH   6   9
ENDBRANCH   2   6
ENDBRANCH   1   4
BRANCH   1  17
ATOM     17  C   TRP A   2      18.516  17.794  28.590  0.00  0.00    +0.241 C 
ATOM     18  O   TRP A   2      18.989  17.078  29.472  0.00  0.00    -0.273 OA
ATOM     19  N   TYR A   3      19.048  17.884  27.377  0.00  0.00    -0.298 N 
ATOM     20  H   TYR A   3      18.625  18.524  26.675  0.00  0.00    +0.150 HD
BRANCH  19  21
ATOM     21  CA  TYR A   3      20.220  17.094  27.021  0.00  0.00    +0.141 C 
BRANCH  21  22
ATOM     22  C   TYR A   3      21.326  17.940  26.381  0.00  0.00    +0.227 C 
ATOM     23  O   TYR A   3      21.741  17.690  25.250  0.00  0.00    -0.286 OA
ENDBRANCH  21  22
BRANCH  21  24
ATOM     24  CB  TYR A   3      19.776  15.966  26.083  0.00  0.00    +0.054 C 
BRANCH  24  25
ATOM     25  CG  TYR A   3      18.626  15.167  26.672  0.00  0.00    -0.020 A 
ATOM     26  CD2 TYR A   3      18.834  14.314  27.757  0.00  0.00    -0.001 A 
ATOM     27  CE2 TYR A   3      17.771  13.626  28.357  0.00  0.00    +0.036 A 
ATOM     28  CZ  TYR A   3      16.487  13.786  27.867  0.00  0.00    +0.134 A 
ATOM     29  CE1 TYR A   3      16.251  14.623  26.785  0.00  0.00    +0.036 A 
ATOM     30  CD1 TYR A   3      17.323  15.311  26.192  0.00  0.00    -0.001 A 
BRANCH  28  31
ATOM     31  OH  TYR A   3      15.443  13.114  28.462  0.00  0.00    -0.506 OA
ATOM     32  HH  TYR A   3      14.599  13.337  27.994  0.00  0.00    +0.292 HD
ENDBRANCH  28  31
ENDBRANCH  24  25
ENDBRANCH  21  24
ENDBRANCH  19  21
ENDBRANCH   1  17
BRANCH   1  33
ATOM     33  CB  TRP A   2      16.040  17.727  28.711  0.00  0.00    +0.057 C 
BRANCH  33  34
ATOM     34  CG  TRP A   2      14.841  18.344  29.326  0.00  0.00    -0.002 A 
ATOM     35  CD2 TRP A   2      14.586  18.481  30.724  0.00  0.00    +0.013 A 
ATOM     36  CE3 TRP A   2      15.267  18.068  31.880  0.00  0.00    +0.001 A 
ATOM     37  CZ3 TRP A   2      14.727  18.383  33.120  0.00  0.00    +0.000 A 
ATOM     38  CH2 TRP A   2      13.521  19.101  33.222  0.00  0.00    +0.001 A 
ATOM     39  CZ2 TRP A   2      12.835  19.514  32.108  0.00  0.00    +0.017 A 
ATOM     40  CE2 TRP A   2      13.381  19.199  30.861  0.00  0.00    +0.056 A 
ATOM     41  NE1 TRP A   2      12.926  19.481  29.599  0.00  0.00    -0.352 N 
ATOM     42  HE1 TRP A   2      12.055  20.002  29.372  0.00  0.00    +0.166 HD
ATOM     43  CD1 TRP A   2      13.810  18.962  28.683  0.00  0.00    +0.068 A 
ENDBRANCH  33  34
ENDBRANCH   1  33
TORSDOF 16
REMARK  Name = ../refined-set-2016/2vsl/2vsl_pocket.pdb
REMARK  125 active torsions:
REMARK  status: ('A' for Active; 'I' for Inactive)
REMARK    1  A    between atoms: _1  and  _5
REMARK    2  A    between atoms: _5  and  _6
REMARK    3  A    between atoms: _5  and  _8
REMARK    4  A    between atoms: _8  and  _9
REMARK    5  A    between atoms: _15  and  _17
REMARK    6  A    between atoms: _17  and  _18
REMARK    7  A    between atoms: _17  and  _20
REMARK    8  A    between atoms: _23  and  _25
REMARK    9  A    between atoms: _25  and  _26
REMARK   10  A    between atoms: _25  and  _28
REMARK   11  A    between atoms: _28  and  _29
REMARK   12  A    between atoms: _32  and  _34
REMARK   13  A    between atoms: _34  and  _35
REMARK   14  A    between atoms: _34  and  _37
REMARK   15  A    between atoms: _37  and  _38
REMARK   16  A    between atoms: _44  and  _46
REMARK   17  A    between atoms: _46  and  _47
REMARK   18  A    between atoms: _46  and  _49
REMARK   19  A    between atoms: _49  and  _50
REMARK   20  A    between atoms: _55  and  _56
REMARK   21  A    between atoms: _58  and  _60
REMARK   22  A    between atoms: _60  and  _61
REMARK   23  A    between atoms: _64  and  _66
REMARK   24  A    between atoms: _66  and  _67
REMARK   25  A    between atoms: _66  and  _69
REMARK   26  A    between atoms: _69  and  _70
REMARK   27  A    between atoms: _73  and  _75
REMARK   28  A    between atoms: _75  and  _76
REMARK   29  A    between atoms: _75  and  _78
REMARK   30  A    between atoms: _78  and  _79
REMARK   31  A    between atoms: _79  and  _80
REMARK   32  A    between atoms: _83  and  _85
REMARK   33  A    between atoms: _85  and  _86
REMARK   34  A    between atoms: _85  and  _88
REMARK   35  A    between atoms: _88  and  _89
REMARK   36  A    between atoms: _92  and  _94
REMARK   37  A    between atoms: _94  and  _95
REMARK   38  A    between atoms: _94  and  _97
REMARK   39  A    between atoms: _97  and  _98
REMARK   40  A    between atoms: _98  and  _99
REMARK   41  A    between atoms: _99  and  _100
REMARK   42  A    between atoms: _100  and  _101
REMARK   43  A    between atoms: _105  and  _107
REMARK   44  A    between atoms: _107  and  _108
REMARK   45  A    between atoms: _107  and  _110
REMARK   46  A    between atoms: _113  and  _115
REMARK   47  A    between atoms: _115  and  _116
REMARK   48  A    between atoms: _115  and  _118
REMARK   49  A    between atoms: _118  and  _119
REMARK   50  A    between atoms: _119  and  _120
REMARK   51  A    between atoms: _120  and  _121
REMARK   52  A    between atoms: _121  and  _122
REMARK   53  A    between atoms: _126  and  _128
REMARK   54  A    between atoms: _128  and  _129
REMARK   55  A    between atoms: _128  and  _131
REMARK   56  A    between atoms: _133  and  _135
REMARK   57  A    between atoms: _135  and  _136
REMARK   58  A    between atoms: _138  and  _140
REMARK   59  A    between atoms: _140  and  _141
REMARK   60  A    between atoms: _143  and  _145
REMARK   61  A    between atoms: _145  and  _146
REMARK   62  A    between atoms: _148  and  _150
REMARK   63  A    between atoms: _150  and  _151
REMARK   64  A    between atoms: _150  and  _153
REMARK   65  A    between atoms: _153  and  _154
REMARK   66  A    between atoms: _157  and  _159
REMARK   67  A    between atoms: _159  and  _160
REMARK   68  A    between atoms: _159  and  _162
REMARK   69  A    between atoms: _162  and  _163
REMARK   70  A    between atoms: _166  and  _168
REMARK   71  A    between atoms: _168  and  _169
REMARK   72  A    between atoms: _168  and  _171
REMARK   73  A    between atoms: _171  and  _172
REMARK   74  A    between atoms: _175  and  _177
REMARK   75  A    between atoms: _177  and  _178
REMARK   76  A    between atoms: _177  and  _180
REMARK   77  A    between atoms: _180  and  _181
REMARK   78  A    between atoms: _191  and  _193
REMARK   79  A    between atoms: _193  and  _194
REMARK   80  A    between atoms: _193  and  _196
REMARK   81  A    between atoms: _196  and  _197
REMARK   82  A    between atoms: _197  and  _198
REMARK   83  A    between atoms: _198  and  _199
REMARK   84  A    between atoms: _199  and  _200
REMARK   85  A    between atoms: _205  and  _206
REMARK   86  A    between atoms: _211  and  _213
REMARK   87  A    between atoms: _213  and  _214
REMARK   88  A    between atoms: _213  and  _216
REMARK   89  A    between atoms: _216  and  _217
REMARK   90  A    between atoms: _217  and  _218
REMARK   91  A    between atoms: _221  and  _223
REMARK   92  A    between atoms: _223  and  _224
REMARK   93  A    between atoms: _223  and  _226
REMARK   94  A    between atoms: _226  and  _227
REMARK   95  A    between atoms: _231  and  _232
REMARK   96  A    between atoms: _237  and  _239
REMARK   97  A    between atoms: _239  and  _240
REMARK   98  A    between atoms: _239  and  _242
REMARK   99  A    between atoms: _242  and  _243
REMARK  100  A    between atoms: _243  and  _244
REMARK  101  A    between atoms: _247  and  _249
REMARK  102  A    between atoms: _249  and  _250
REMARK  103  A    between atoms: _249  and  _252
REMARK  104  A    between atoms: _252  and  _253
REMARK  105  A    between atoms: _253  and  _254
REMARK  106  A    between atoms: _259  and  _261
REMARK  107  A    between atoms: _261  and  _262
REMARK  108  A    between atoms: _261  and  _264
REMARK  109  A    between atoms: _264  and  _265
REMARK  110  A    between atoms: _270  and  _272
REMARK  111  A    between atoms: _272  and  _273
REMARK  112  A    between atoms: _272  and  _275
REMARK  113  A    between atoms: _275  and  _276
REMARK  114  A    between atoms: _276  and  _277
REMARK  115  A    between atoms: _277  and  _278
REMARK  116  A    between atoms: _278  and  _279
REMARK  117  A    between atoms: _283  and  _285
REMARK  118  A    between atoms: _285  and  _286
REMARK  119  A    between atoms: _285  and  _288
REMARK  120  A    between atoms: _288  and  _289
REMARK  121  A    between atoms: _299  and  _301
REMARK  122  A    between atoms: _301  and  _302
REMARK  123  A    between atoms: _301  and  _304
REMARK  124  A    between atoms: _304  and  _305
REMARK  125  A    between atoms: _310  and  _311
REMARK                            x       y       z     vdW  Elec       q    Type
REMARK                         _______ _______ _______ _____ _____    ______ ____
ROOT
ATOM      1  O   HOH     1       5.577   7.947  20.373  0.00  0.00    +0.000 OA
ENDROOT
TORSDOF 0
REMARK  Name = ../refined-set-2016/2vsl/2vsl_pocket.pdb
REMARK  125 active torsions:
REMARK  status: ('A' for Active; 'I' for Inactive)
REMARK    1  A    between atoms: _1  and  _5
REMARK    2  A    between atoms: _5  and  _6
REMARK    3  A    between atoms: _5  and  _8
REMARK    4  A    between atoms: _8  and  _9
REMARK    5  A    between atoms: _15  and  _17
REMARK    6  A    between atoms: _17  and  _18
REMARK    7  A    between atoms: _17  and  _20
REMARK    8  A    between atoms: _23  and  _25
REMARK    9  A    between atoms: _25  and  _26
REMARK   10  A    between atoms: _25  and  _28
REMARK   11  A    between atoms: _28  and  _29
REMARK   12  A    between atoms: _32  and  _34
REMARK   13  A    between atoms: _34  and  _35
REMARK   14  A    between atoms: _34  and  _37
REMARK   15  A    between atoms: _37  and  _38
REMARK   16  A    between atoms: _44  and  _46
REMARK   17  A    between atoms: _46  and  _47
REMARK   18  A    between atoms: _46  and  _49
REMARK   19  A    between atoms: _49  and  _50
REMARK   20  A    between atoms: _55  and  _56
REMARK   21  A    between atoms: _58  and  _60
REMARK   22  A    between atoms: _60  and  _61
REMARK   23  A    between atoms: _64  and  _66
REMARK   24  A    between atoms: _66  and  _67
REMARK   25  A    between atoms: _66  and  _69
REMARK   26  A    between atoms: _69  and  _70
REMARK   27  A    between atoms: _73  and  _75
REMARK   28  A    between atoms: _75  and  _76
REMARK   29  A    between atoms: _75  and  _78
REMARK   30  A    between atoms: _78  and  _79
REMARK   31  A    between atoms: _79  and  _80
REMARK   32  A    between atoms: _83  and  _85
REMARK   33  A    between atoms: _85  and  _86
REMARK   34  A    between atoms: _85  and  _88
REMARK   35  A    between atoms: _88  and  _89
REMARK   36  A    between atoms: _92  and  _94
REMARK   37  A    between atoms: _94  and  _95
REMARK   38  A    between atoms: _94  and  _97
REMARK   39  A    between atoms: _97  and  _98
REMARK   40  A    between atoms: _98  and  _99
REMARK   41  A    between atoms: _99  and  _100
REMARK   42  A    between atoms: _100  and  _101
REMARK   43  A    between atoms: _105  and  _107
REMARK   44  A    between atoms: _107  and  _108
REMARK   45  A    between atoms: _107  and  _110
REMARK   46  A    between atoms: _113  and  _115
REMARK   47  A    between atoms: _115  and  _116
REMARK   48  A    between atoms: _115  and  _118
REMARK   49  A    between atoms: _118  and  _119
REMARK   50  A    between atoms: _119  and  _120
REMARK   51  A    between atoms: _120  and  _121
REMARK   52  A    between atoms: _121  and  _122
REMARK   53  A    between atoms: _126  and  _128
REMARK   54  A    between atoms: _128  and  _129
REMARK   55  A    between atoms: _128  and  _131
REMARK   56  A    between atoms: _133  and  _135
REMARK   57  A    between atoms: _135  and  _136
REMARK   58  A    between atoms: _138  and  _140
REMARK   59  A    between atoms: _140  and  _141
REMARK   60  A    between atoms: _143  and  _145
REMARK   61  A    between atoms: _145  and  _146
REMARK   62  A    between atoms: _148  and  _150
REMARK   63  A    between atoms: _150  and  _151
REMARK   64  A    between atoms: _150  and  _153
REMARK   65  A    between atoms: _153  and  _154
REMARK   66  A    between atoms: _157  and  _159
REMARK   67  A    between atoms: _159  and  _160
REMARK   68  A    between atoms: _159  and  _162
REMARK   69  A    between atoms: _162  and  _163
REMARK   70  A    between atoms: _166  and  _168
REMARK   71  A    between atoms: _168  and  _169
REMARK   72  A    between atoms: _168  and  _171
REMARK   73  A    between atoms: _171  and  _172
REMARK   74  A    between atoms: _175  and  _177
REMARK   75  A    between atoms: _177  and  _178
REMARK   76  A    between atoms: _177  and  _180
REMARK   77  A    between atoms: _180  and  _181
REMARK   78  A    between atoms: _191  and  _193
REMARK   79  A    between atoms: _193  and  _194
REMARK   80  A    between atoms: _193  and  _196
REMARK   81  A    between atoms: _196  and  _197
REMARK   82  A    between atoms: _197  and  _198
REMARK   83  A    between atoms: _198  and  _199
REMARK   84  A    between atoms: _199  and  _200
REMARK   85  A    between atoms: _205  and  _206
REMARK   86  A    between atoms: _211  and  _213
REMARK   87  A    between atoms: _213  and  _214
REMARK   88  A    between atoms: _213  and  _216
REMARK   89  A    between atoms: _216  and  _217
REMARK   90  A    between atoms: _217  and  _218
REMARK   91  A    between atoms: _221  and  _223
REMARK   92  A    between atoms: _223  and  _224
REMARK   93  A    between atoms: _223  and  _226
REMARK   94  A    between atoms: _226  and  _227
REMARK   95  A    between atoms: _231  and  _232
REMARK   96  A    between atoms: _237  and  _239
REMARK   97  A    between atoms: _239  and  _240
REMARK   98  A    between atoms: _239  and  _242
REMARK   99  A    between atoms: _242  and  _243
REMARK  100  A    between atoms: _243  and  _244
REMARK  101  A    between atoms: _247  and  _249
REMARK  102  A    between atoms: _249  and  _250
REMARK  103  A    between atoms: _249  and  _252
REMARK  104  A    between atoms: _252  and  _253
REMARK  105  A    between atoms: _253  and  _254
REMARK  106  A    between atoms: _259  and  _261
REMARK  107  A    between atoms: _261  and  _262
REMARK  108  A    between atoms: _261  and  _264
REMARK  109  A    between atoms: _264  and  _265
REMARK  110  A    between atoms: _270  and  _272
REMARK  111  A    between atoms: _272  and  _273
REMARK  112  A    between atoms: _272  and  _275
REMARK  113  A    between atoms: _275  and  _276
REMARK  114  A    between atoms: _276  and  _277
REMARK  115  A    between atoms: _277  and  _278
REMARK  116  A    between atoms: _278  and  _279
REMARK  117  A    between atoms: _283  and  _285
REMARK  118  A    between atoms: _285  and  _286
REMARK  119  A    between atoms: _285  and  _288
REMARK  120  A    between atoms: _288  and  _289
REMARK  121  A    between atoms: _299  and  _301
REMARK  122  A    between atoms: _301  and  _302
REMARK  123  A    between atoms: _301  and  _304
REMARK  124  A    between atoms: _304  and  _305
REMARK  125  A    between atoms: _310  and  _311
REMARK                            x       y       z     vdW  Elec       q    Type
REMARK                         _______ _______ _______ _____ _____    ______ ____
ROOT
ATOM      1  O   HOH     1      14.395   2.781  23.414  0.00  0.00    +0.000 OA
ENDROOT
TORSDOF 0
REMARK  Name = ../refined-set-2016/2vsl/2vsl_pocket.pdb
REMARK  125 active torsions:
REMARK  status: ('A' for Active; 'I' for Inactive)
REMARK    1  A    between atoms: _1  and  _5
REMARK    2  A    between atoms: _5  and  _6
REMARK    3  A    between atoms: _5  and  _8
REMARK    4  A    between atoms: _8  and  _9
REMARK    5  A    between atoms: _15  and  _17
REMARK    6  A    between atoms: _17  and  _18
REMARK    7  A    between atoms: _17  and  _20
REMARK    8  A    between atoms: _23  and  _25
REMARK    9  A    between atoms: _25  and  _26
REMARK   10  A    between atoms: _25  and  _28
REMARK   11  A    between atoms: _28  and  _29
REMARK   12  A    between atoms: _32  and  _34
REMARK   13  A    between atoms: _34  and  _35
REMARK   14  A    between atoms: _34  and  _37
REMARK   15  A    between atoms: _37  and  _38
REMARK   16  A    between atoms: _44  and  _46
REMARK   17  A    between atoms: _46  and  _47
REMARK   18  A    between atoms: _46  and  _49
REMARK   19  A    between atoms: _49  and  _50
REMARK   20  A    between atoms: _55  and  _56
REMARK   21  A    between atoms: _58  and  _60
REMARK   22  A    between atoms: _60  and  _61
REMARK   23  A    between atoms: _64  and  _66
REMARK   24  A    between atoms: _66  and  _67
REMARK   25  A    between atoms: _66  and  _69
REMARK   26  A    between atoms: _69  and  _70
REMARK   27  A    between atoms: _73  and  _75
REMARK   28  A    between atoms: _75  and  _76
REMARK   29  A    between atoms: _75  and  _78
REMARK   30  A    between atoms: _78  and  _79
REMARK   31  A    between atoms: _79  and  _80
REMARK   32  A    between atoms: _83  and  _85
REMARK   33  A    between atoms: _85  and  _86
REMARK   34  A    between atoms: _85  and  _88
REMARK   35  A    between atoms: _88  and  _89
REMARK   36  A    between atoms: _92  and  _94
REMARK   37  A    between atoms: _94  and  _95
REMARK   38  A    between atoms: _94  and  _97
REMARK   39  A    between atoms: _97  and  _98
REMARK   40  A    between atoms: _98  and  _99
REMARK   41  A    between atoms: _99  and  _100
REMARK   42  A    between atoms: _100  and  _101
REMARK   43  A    between atoms: _105  and  _107
REMARK   44  A    between atoms: _107  and  _108
REMARK   45  A    between atoms: _107  and  _110
REMARK   46  A    between atoms: _113  and  _115
REMARK   47  A    between atoms: _115  and  _116
REMARK   48  A    between atoms: _115  and  _118
REMARK   49  A    between atoms: _118  and  _119
REMARK   50  A    between atoms: _119  and  _120
REMARK   51  A    between atoms: _120  and  _121
REMARK   52  A    between atoms: _121  and  _122
REMARK   53  A    between atoms: _126  and  _128
REMARK   54  A    between atoms: _128  and  _129
REMARK   55  A    between atoms: _128  and  _131
REMARK   56  A    between atoms: _133  and  _135
REMARK   57  A    between atoms: _135  and  _136
REMARK   58  A    between atoms: _138  and  _140
REMARK   59  A    between atoms: _140  and  _141
REMARK   60  A    between atoms: _143  and  _145
REMARK   61  A    between atoms: _145  and  _146
REMARK   62  A    between atoms: _148  and  _150
REMARK   63  A    between atoms: _150  and  _151
REMARK   64  A    between atoms: _150  and  _153
REMARK   65  A    between atoms: _153  and  _154
REMARK   66  A    between atoms: _157  and  _159
REMARK   67  A    between atoms: _159  and  _160
REMARK   68  A    between atoms: _159  and  _162
REMARK   69  A    between atoms: _162  and  _163
REMARK   70  A    between atoms: _166  and  _168
REMARK   71  A    between atoms: _168  and  _169
REMARK   72  A    between atoms: _168  and  _171
REMARK   73  A    between atoms: _171  and  _172
REMARK   74  A    between atoms: _175  and  _177
REMARK   75  A    between atoms: _177  and  _178
REMARK   76  A    between atoms: _177  and  _180
REMARK   77  A    between atoms: _180  and  _181
REMARK   78  A    between atoms: _191  and  _193
REMARK   79  A    between atoms: _193  and  _194
REMARK   80  A    between atoms: _193  and  _196
REMARK   81  A    between atoms: _196  and  _197
REMARK   82  A    between atoms: _197  and  _198
REMARK   83  A    between atoms: _198  and  _199
REMARK   84  A    between atoms: _199  and  _200
REMARK   85  A    between atoms: _205  and  _206
REMARK   86  A    between atoms: _211  and  _213
REMARK   87  A    between atoms: _213  and  _214
REMARK   88  A    between atoms: _213  and  _216
REMARK   89  A    between atoms: _216  and  _217
REMARK   90  A    between atoms: _217  and  _218
REMARK   91  A    between atoms: _221  and  _223
REMARK   92  A    between atoms: _223  and  _224
REMARK   93  A    between atoms: _223  and  _226
REMARK   94  A    between atoms: _226  and  _227
REMARK   95  A    between atoms: _231  and  _232
REMARK   96  A    between atoms: _237  and  _239
REMARK   97  A    between atoms: _239  and  _240
REMARK   98  A    between atoms: _239  and  _242
REMARK   99  A    between atoms: _242  and  _243
REMARK  100  A    between atoms: _243  and  _244
REMARK  101  A    between atoms: _247  and  _249
REMARK  102  A    between atoms: _249  and  _250
REMARK  103  A    between atoms: _249  and  _252
REMARK  104  A    between atoms: _252  and  _253
REMARK  105  A    between atoms: _253  and  _254
REMARK  106  A    between atoms: _259  and  _261
REMARK  107  A    between atoms: _261  and  _262
REMARK  108  A    between atoms: _261  and  _264
REMARK  109  A    between atoms: _264  and  _265
REMARK  110  A    between atoms: _270  and  _272
REMARK  111  A    between atoms: _272  and  _273
REMARK  112  A    between atoms: _272  and  _275
REMARK  113  A    between atoms: _275  and  _276
REMARK  114  A    between atoms: _276  and  _277
REMARK  115  A    between atoms: _277  and  _278
REMARK  116  A    between atoms: _278  and  _279
REMARK  117  A    between atoms: _283  and  _285
REMARK  118  A    between atoms: _285  and  _286
REMARK  119  A    between atoms: _285  and  _288
REMARK  120  A    between atoms: _288  and  _289
REMARK  121  A    between atoms: _299  and  _301
REMARK  122  A    between atoms: _301  and  _302
REMARK  123  A    between atoms: _301  and  _304
REMARK  124  A    between atoms: _304  and  _305
REMARK  125  A    between atoms: _310  and  _311
REMARK                            x       y       z     vdW  Elec       q    Type
REMARK                         _______ _______ _______ _____ _____    ______ ____
ROOT
ATOM      1  O   HOH     1       2.548  25.365  23.458  0.00  0.00    +0.000 OA
ENDROOT
TORSDOF 0
REMARK  Name = ../refined-set-2016/2vsl/2vsl_pocket.pdb
REMARK  125 active torsions:
REMARK  status: ('A' for Active; 'I' for Inactive)
REMARK    1  A    between atoms: _1  and  _5
REMARK    2  A    between atoms: _5  and  _6
REMARK    3  A    between atoms: _5  and  _8
REMARK    4  A    between atoms: _8  and  _9
REMARK    5  A    between atoms: _15  and  _17
REMARK    6  A    between atoms: _17  and  _18
REMARK    7  A    between atoms: _17  and  _20
REMARK    8  A    between atoms: _23  and  _25
REMARK    9  A    between atoms: _25  and  _26
REMARK   10  A    between atoms: _25  and  _28
REMARK   11  A    between atoms: _28  and  _29
REMARK   12  A    between atoms: _32  and  _34
REMARK   13  A    between atoms: _34  and  _35
REMARK   14  A    between atoms: _34  and  _37
REMARK   15  A    between atoms: _37  and  _38
REMARK   16  A    between atoms: _44  and  _46
REMARK   17  A    between atoms: _46  and  _47
REMARK   18  A    between atoms: _46  and  _49
REMARK   19  A    between atoms: _49  and  _50
REMARK   20  A    between atoms: _55  and  _56
REMARK   21  A    between atoms: _58  and  _60
REMARK   22  A    between atoms: _60  and  _61
REMARK   23  A    between atoms: _64  and  _66
REMARK   24  A    between atoms: _66  and  _67
REMARK   25  A    between atoms: _66  and  _69
REMARK   26  A    between atoms: _69  and  _70
REMARK   27  A    between atoms: _73  and  _75
REMARK   28  A    between atoms: _75  and  _76
REMARK   29  A    between atoms: _75  and  _78
REMARK   30  A    between atoms: _78  and  _79
REMARK   31  A    between atoms: _79  and  _80
REMARK   32  A    between atoms: _83  and  _85
REMARK   33  A    between atoms: _85  and  _86
REMARK   34  A    between atoms: _85  and  _88
REMARK   35  A    between atoms: _88  and  _89
REMARK   36  A    between atoms: _92  and  _94
REMARK   37  A    between atoms: _94  and  _95
REMARK   38  A    between atoms: _94  and  _97
REMARK   39  A    between atoms: _97  and  _98
REMARK   40  A    between atoms: _98  and  _99
REMARK   41  A    between atoms: _99  and  _100
REMARK   42  A    between atoms: _100  and  _101
REMARK   43  A    between atoms: _105  and  _107
REMARK   44  A    between atoms: _107  and  _108
REMARK   45  A    between atoms: _107  and  _110
REMARK   46  A    between atoms: _113  and  _115
REMARK   47  A    between atoms: _115  and  _116
REMARK   48  A    between atoms: _115  and  _118
REMARK   49  A    between atoms: _118  and  _119
REMARK   50  A    between atoms: _119  and  _120
REMARK   51  A    between atoms: _120  and  _121
REMARK   52  A    between atoms: _121  and  _122
REMARK   53  A    between atoms: _126  and  _128
REMARK   54  A    between atoms: _128  and  _129
REMARK   55  A    between atoms: _128  and  _131
REMARK   56  A    between atoms: _133  and  _135
REMARK   57  A    between atoms: _135  and  _136
REMARK   58  A    between atoms: _138  and  _140
REMARK   59  A    between atoms: _140  and  _141
REMARK   60  A    between atoms: _143  and  _145
REMARK   61  A    between atoms: _145  and  _146
REMARK   62  A    between atoms: _148  and  _150
REMARK   63  A    between atoms: _150  and  _151
REMARK   64  A    between atoms: _150  and  _153
REMARK   65  A    between atoms: _153  and  _154
REMARK   66  A    between atoms: _157  and  _159
REMARK   67  A    between atoms: _159  and  _160
REMARK   68  A    between atoms: _159  and  _162
REMARK   69  A    between atoms: _162  and  _163
REMARK   70  A    between atoms: _166  and  _168
REMARK   71  A    between atoms: _168  and  _169
REMARK   72  A    between atoms: _168  and  _171
REMARK   73  A    between atoms: _171  and  _172
REMARK   74  A    between atoms: _175  and  _177
REMARK   75  A    between atoms: _177  and  _178
REMARK   76  A    between atoms: _177  and  _180
REMARK   77  A    between atoms: _180  and  _181
REMARK   78  A    between atoms: _191  and  _193
REMARK   79  A    between atoms: _193  and  _194
REMARK   80  A    between atoms: _193  and  _196
REMARK   81  A    between atoms: _196  and  _197
REMARK   82  A    between atoms: _197  and  _198
REMARK   83  A    between atoms: _198  and  _199
REMARK   84  A    between atoms: _199  and  _200
REMARK   85  A    between atoms: _205  and  _206
REMARK   86  A    between atoms: _211  and  _213
REMARK   87  A    between atoms: _213  and  _214
REMARK   88  A    between atoms: _213  and  _216
REMARK   89  A    between atoms: _216  and  _217
REMARK   90  A    between atoms: _217  and  _218
REMARK   91  A    between atoms: _221  and  _223
REMARK   92  A    between atoms: _223  and  _224
REMARK   93  A    between atoms: _223  and  _226
REMARK   94  A    between atoms: _226  and  _227
REMARK   95  A    between atoms: _231  and  _232
REMARK   96  A    between atoms: _237  and  _239
REMARK   97  A    between atoms: _239  and  _240
REMARK   98  A    between atoms: _239  and  _242
REMARK   99  A    between atoms: _242  and  _243
REMARK  100  A    between atoms: _243  and  _244
REMARK  101  A    between atoms: _247  and  _249
REMARK  102  A    between atoms: _249  and  _250
REMARK  103  A    between atoms: _249  and  _252
REMARK  104  A    between atoms: _252  and  _253
REMARK  105  A    between atoms: _253  and  _254
REMARK  106  A    between atoms: _259  and  _261
REMARK  107  A    between atoms: _261  and  _262
REMARK  108  A    between atoms: _261  and  _264
REMARK  109  A    between atoms: _264  and  _265
REMARK  110  A    between atoms: _270  and  _272
REMARK  111  A    between atoms: _272  and  _273
REMARK  112  A    between atoms: _272  and  _275
REMARK  113  A    between atoms: _275  and  _276
REMARK  114  A    between atoms: _276  and  _277
REMARK  115  A    between atoms: _277  and  _278
REMARK  116  A    between atoms: _278  and  _279
REMARK  117  A    between atoms: _283  and  _285
REMARK  118  A    between atoms: _285  and  _286
REMARK  119  A    between atoms: _285  and  _288
REMARK  120  A    between atoms: _288  and  _289
REMARK  121  A    between atoms: _299  and  _301
REMARK  122  A    between atoms: _301  and  _302
REMARK  123  A    between atoms: _301  and  _304
REMARK  124  A    between atoms: _304  and  _305
REMARK  125  A    between atoms: _310  and  _311
REMARK                            x       y       z     vdW  Elec       q    Type
REMARK                         _______ _______ _______ _____ _____    ______ ____
ROOT
ATOM      1  O   HOH     1       9.994  25.356  23.340  0.00  0.00    +0.000 OA
ENDROOT
TORSDOF 0
REMARK  Name = ../refined-set-2016/2vsl/2vsl_pocket.pdb
REMARK  125 active torsions:
REMARK  status: ('A' for Active; 'I' for Inactive)
REMARK    1  A    between atoms: _1  and  _5
REMARK    2  A    between atoms: _5  and  _6
REMARK    3  A    between atoms: _5  and  _8
REMARK    4  A    between atoms: _8  and  _9
REMARK    5  A    between atoms: _15  and  _17
REMARK    6  A    between atoms: _17  and  _18
REMARK    7  A    between atoms: _17  and  _20
REMARK    8  A    between atoms: _23  and  _25
REMARK    9  A    between atoms: _25  and  _26
REMARK   10  A    between atoms: _25  and  _28
REMARK   11  A    between atoms: _28  and  _29
REMARK   12  A    between atoms: _32  and  _34
REMARK   13  A    between atoms: _34  and  _35
REMARK   14  A    between atoms: _34  and  _37
REMARK   15  A    between atoms: _37  and  _38
REMARK   16  A    between atoms: _44  and  _46
REMARK   17  A    between atoms: _46  and  _47
REMARK   18  A    between atoms: _46  and  _49
REMARK   19  A    between atoms: _49  and  _50
REMARK   20  A    between atoms: _55  and  _56
REMARK   21  A    between atoms: _58  and  _60
REMARK   22  A    between atoms: _60  and  _61
REMARK   23  A    between atoms: _64  and  _66
REMARK   24  A    between atoms: _66  and  _67
REMARK   25  A    between atoms: _66  and  _69
REMARK   26  A    between atoms: _69  and  _70
REMARK   27  A    between atoms: _73  and  _75
REMARK   28  A    between atoms: _75  and  _76
REMARK   29  A    between atoms: _75  and  _78
REMARK   30  A    between atoms: _78  and  _79
REMARK   31  A    between atoms: _79  and  _80
REMARK   32  A    between atoms: _83  and  _85
REMARK   33  A    between atoms: _85  and  _86
REMARK   34  A    between atoms: _85  and  _88
REMARK   35  A    between atoms: _88  and  _89
REMARK   36  A    between atoms: _92  and  _94
REMARK   37  A    between atoms: _94  and  _95
REMARK   38  A    between atoms: _94  and  _97
REMARK   39  A    between atoms: _97  and  _98
REMARK   40  A    between atoms: _98  and  _99
REMARK   41  A    between atoms: _99  and  _100
REMARK   42  A    between atoms: _100  and  _101
REMARK   43  A    between atoms: _105  and  _107
REMARK   44  A    between atoms: _107  and  _108
REMARK   45  A    between atoms: _107  and  _110
REMARK   46  A    between atoms: _113  and  _115
REMARK   47  A    between atoms: _115  and  _116
REMARK   48  A    between atoms: _115  and  _118
REMARK   49  A    between atoms: _118  and  _119
REMARK   50  A    between atoms: _119  and  _120
REMARK   51  A    between atoms: _120  and  _121
REMARK   52  A    between atoms: _121  and  _122
REMARK   53  A    between atoms: _126  and  _128
REMARK   54  A    between atoms: _128  and  _129
REMARK   55  A    between atoms: _128  and  _131
REMARK   56  A    between atoms: _133  and  _135
REMARK   57  A    between atoms: _135  and  _136
REMARK   58  A    between atoms: _138  and  _140
REMARK   59  A    between atoms: _140  and  _141
REMARK   60  A    between atoms: _143  and  _145
REMARK   61  A    between atoms: _145  and  _146
REMARK   62  A    between atoms: _148  and  _150
REMARK   63  A    between atoms: _150  and  _151
REMARK   64  A    between atoms: _150  and  _153
REMARK   65  A    between atoms: _153  and  _154
REMARK   66  A    between atoms: _157  and  _159
REMARK   67  A    between atoms: _159  and  _160
REMARK   68  A    between atoms: _159  and  _162
REMARK   69  A    between atoms: _162  and  _163
REMARK   70  A    between atoms: _166  and  _168
REMARK   71  A    between atoms: _168  and  _169
REMARK   72  A    between atoms: _168  and  _171
REMARK   73  A    between atoms: _171  and  _172
REMARK   74  A    between atoms: _175  and  _177
REMARK   75  A    between atoms: _177  and  _178
REMARK   76  A    between atoms: _177  and  _180
REMARK   77  A    between atoms: _180  and  _181
REMARK   78  A    between atoms: _191  and  _193
REMARK   79  A    between atoms: _193  and  _194
REMARK   80  A    between atoms: _193  and  _196
REMARK   81  A    between atoms: _196  and  _197
REMARK   82  A    between atoms: _197  and  _198
REMARK   83  A    between atoms: _198  and  _199
REMARK   84  A    between atoms: _199  and  _200
REMARK   85  A    between atoms: _205  and  _206
REMARK   86  A    between atoms: _211  and  _213
REMARK   87  A    between atoms: _213  and  _214
REMARK   88  A    between atoms: _213  and  _216
REMARK   89  A    between atoms: _216  and  _217
REMARK   90  A    between atoms: _217  and  _218
REMARK   91  A    between atoms: _221  and  _223
REMARK   92  A    between atoms: _223  and  _224
REMARK   93  A    between atoms: _223  and  _226
REMARK   94  A    between atoms: _226  and  _227
REMARK   95  A    between atoms: _231  and  _232
REMARK   96  A    between atoms: _237  and  _239
REMARK   97  A    between atoms: _239  and  _240
REMARK   98  A    between atoms: _239  and  _242
REMARK   99  A    between atoms: _242  and  _243
REMARK  100  A    between atoms: _243  and  _244
REMARK  101  A    between atoms: _247  and  _249
REMARK  102  A    between atoms: _249  and  _250
REMARK  103  A    between atoms: _249  and  _252
REMARK  104  A    between atoms: _252  and  _253
REMARK  105  A    between atoms: _253  and  _254
REMARK  106  A    between atoms: _259  and  _261
REMARK  107  A    between atoms: _261  and  _262
REMARK  108  A    between atoms: _261  and  _264
REMARK  109  A    between atoms: _264  and  _265
REMARK  110  A    between atoms: _270  and  _272
REMARK  111  A    between atoms: _272  and  _273
REMARK  112  A    between atoms: _272  and  _275
REMARK  113  A    between atoms: _275  and  _276
REMARK  114  A    between atoms: _276  and  _277
REMARK  115  A    between atoms: _277  and  _278
REMARK  116  A    between atoms: _278  and  _279
REMARK  117  A    between atoms: _283  and  _285
REMARK  118  A    between atoms: _285  and  _286
REMARK  119  A    between atoms: _285  and  _288
REMARK  120  A    between atoms: _288  and  _289
REMARK  121  A    between atoms: _299  and  _301
REMARK  122  A    between atoms: _301  and  _302
REMARK  123  A    between atoms: _301  and  _304
REMARK  124  A    between atoms: _304  and  _305
REMARK  125  A    between atoms: _310  and  _311
REMARK                            x       y       z     vdW  Elec       q    Type
REMARK                         _______ _______ _______ _____ _____    ______ ____
ROOT
ATOM      1  O   HOH     1      10.502  21.636  29.411  0.00  0.00    +0.000 OA
ENDROOT
TORSDOF 0
REMARK  Name = ../refined-set-2016/2vsl/2vsl_pocket.pdb
REMARK  125 active torsions:
REMARK  status: ('A' for Active; 'I' for Inactive)
REMARK    1  A    between atoms: _1  and  _5
REMARK    2  A    between atoms: _5  and  _6
REMARK    3  A    between atoms: _5  and  _8
REMARK    4  A    between atoms: _8  and  _9
REMARK    5  A    between atoms: _15  and  _17
REMARK    6  A    between atoms: _17  and  _18
REMARK    7  A    between atoms: _17  and  _20
REMARK    8  A    between atoms: _23  and  _25
REMARK    9  A    between atoms: _25  and  _26
REMARK   10  A    between atoms: _25  and  _28
REMARK   11  A    between atoms: _28  and  _29
REMARK   12  A    between atoms: _32  and  _34
REMARK   13  A    between atoms: _34  and  _35
REMARK   14  A    between atoms: _34  and  _37
REMARK   15  A    between atoms: _37  and  _38
REMARK   16  A    between atoms: _44  and  _46
REMARK   17  A    between atoms: _46  and  _47
REMARK   18  A    between atoms: _46  and  _49
REMARK   19  A    between atoms: _49  and  _50
REMARK   20  A    between atoms: _55  and  _56
REMARK   21  A    between atoms: _58  and  _60
REMARK   22  A    between atoms: _60  and  _61
REMARK   23  A    between atoms: _64  and  _66
REMARK   24  A    between atoms: _66  and  _67
REMARK   25  A    between atoms: _66  and  _69
REMARK   26  A    between atoms: _69  and  _70
REMARK   27  A    between atoms: _73  and  _75
REMARK   28  A    between atoms: _75  and  _76
REMARK   29  A    between atoms: _75  and  _78
REMARK   30  A    between atoms: _78  and  _79
REMARK   31  A    between atoms: _79  and  _80
REMARK   32  A    between atoms: _83  and  _85
REMARK   33  A    between atoms: _85  and  _86
REMARK   34  A    between atoms: _85  and  _88
REMARK   35  A    between atoms: _88  and  _89
REMARK   36  A    between atoms: _92  and  _94
REMARK   37  A    between atoms: _94  and  _95
REMARK   38  A    between atoms: _94  and  _97
REMARK   39  A    between atoms: _97  and  _98
REMARK   40  A    between atoms: _98  and  _99
REMARK   41  A    between atoms: _99  and  _100
REMARK   42  A    between atoms: _100  and  _101
REMARK   43  A    between atoms: _105  and  _107
REMARK   44  A    between atoms: _107  and  _108
REMARK   45  A    between atoms: _107  and  _110
REMARK   46  A    between atoms: _113  and  _115
REMARK   47  A    between atoms: _115  and  _116
REMARK   48  A    between atoms: _115  and  _118
REMARK   49  A    between atoms: _118  and  _119
REMARK   50  A    between atoms: _119  and  _120
REMARK   51  A    between atoms: _120  and  _121
REMARK   52  A    between atoms: _121  and  _122
REMARK   53  A    between atoms: _126  and  _128
REMARK   54  A    between atoms: _128  and  _129
REMARK   55  A    between atoms: _128  and  _131
REMARK   56  A    between atoms: _133  and  _135
REMARK   57  A    between atoms: _135  and  _136
REMARK   58  A    between atoms: _138  and  _140
REMARK   59  A    between atoms: _140  and  _141
REMARK   60  A    between atoms: _143  and  _145
REMARK   61  A    between atoms: _145  and  _146
REMARK   62  A    between atoms: _148  and  _150
REMARK   63  A    between atoms: _150  and  _151
REMARK   64  A    between atoms: _150  and  _153
REMARK   65  A    between atoms: _153  and  _154
REMARK   66  A    between atoms: _157  and  _159
REMARK   67  A    between atoms: _159  and  _160
REMARK   68  A    between atoms: _159  and  _162
REMARK   69  A    between atoms: _162  and  _163
REMARK   70  A    between atoms: _166  and  _168
REMARK   71  A    between atoms: _168  and  _169
REMARK   72  A    between atoms: _168  and  _171
REMARK   73  A    between atoms: _171  and  _172
REMARK   74  A    between atoms: _175  and  _177
REMARK   75  A    between atoms: _177  and  _178
REMARK   76  A    between atoms: _177  and  _180
REMARK   77  A    between atoms: _180  and  _181
REMARK   78  A    between atoms: _191  and  _193
REMARK   79  A    between atoms: _193  and  _194
REMARK   80  A    between atoms: _193  and  _196
REMARK   81  A    between atoms: _196  and  _197
REMARK   82  A    between atoms: _197  and  _198
REMARK   83  A    between atoms: _198  and  _199
REMARK   84  A    between atoms: _199  and  _200
REMARK   85  A    between atoms: _205  and  _206
REMARK   86  A    between atoms: _211  and  _213
REMARK   87  A    between atoms: _213  and  _214
REMARK   88  A    between atoms: _213  and  _216
REMARK   89  A    between atoms: _216  and  _217
REMARK   90  A    between atoms: _217  and  _218
REMARK   91  A    between atoms: _221  and  _223
REMARK   92  A    between atoms: _223  and  _224
REMARK   93  A    between atoms: _223  and  _226
REMARK   94  A    between atoms: _226  and  _227
REMARK   95  A    between atoms: _231  and  _232
REMARK   96  A    between atoms: _237  and  _239
REMARK   97  A    between atoms: _239  and  _240
REMARK   98  A    between atoms: _239  and  _242
REMARK   99  A    between atoms: _242  and  _243
REMARK  100  A    between atoms: _243  and  _244
REMARK  101  A    between atoms: _247  and  _249
REMARK  102  A    between atoms: _249  and  _250
REMARK  103  A    between atoms: _249  and  _252
REMARK  104  A    between atoms: _252  and  _253
REMARK  105  A    between atoms: _253  and  _254
REMARK  106  A    between atoms: _259  and  _261
REMARK  107  A    between atoms: _261  and  _262
REMARK  108  A    between atoms: _261  and  _264
REMARK  109  A    between atoms: _264  and  _265
REMARK  110  A    between atoms: _270  and  _272
REMARK  111  A    between atoms: _272  and  _273
REMARK  112  A    between atoms: _272  and  _275
REMARK  113  A    between atoms: _275  and  _276
REMARK  114  A    between atoms: _276  and  _277
REMARK  115  A    between atoms: _277  and  _278
REMARK  116  A    between atoms: _278  and  _279
REMARK  117  A    between atoms: _283  and  _285
REMARK  118  A    between atoms: _285  and  _286
REMARK  119  A    between atoms: _285  and  _288
REMARK  120  A    between atoms: _288  and  _289
REMARK  121  A    between atoms: _299  and  _301
REMARK  122  A    between atoms: _301  and  _302
REMARK  123  A    between atoms: _301  and  _304
REMARK  124  A    between atoms: _304  and  _305
REMARK  125  A    between atoms: _310  and  _311
REMARK                            x       y       z     vdW  Elec       q    Type
REMARK                         _______ _______ _______ _____ _____    ______ ____
ROOT
ATOM      1  O   HOH     1       8.185  11.604  32.239  0.00  0.00    +0.000 OA
ENDROOT
TORSDOF 0
REMARK  Name = ../refined-set-2016/2vsl/2vsl_pocket.pdb
REMARK  125 active torsions:
REMARK  status: ('A' for Active; 'I' for Inactive)
REMARK    1  A    between atoms: _1  and  _5
REMARK    2  A    between atoms: _5  and  _6
REMARK    3  A    between atoms: _5  and  _8
REMARK    4  A    between atoms: _8  and  _9
REMARK    5  A    between atoms: _15  and  _17
REMARK    6  A    between atoms: _17  and  _18
REMARK    7  A    between atoms: _17  and  _20
REMARK    8  A    between atoms: _23  and  _25
REMARK    9  A    between atoms: _25  and  _26
REMARK   10  A    between atoms: _25  and  _28
REMARK   11  A    between atoms: _28  and  _29
REMARK   12  A    between atoms: _32  and  _34
REMARK   13  A    between atoms: _34  and  _35
REMARK   14  A    between atoms: _34  and  _37
REMARK   15  A    between atoms: _37  and  _38
REMARK   16  A    between atoms: _44  and  _46
REMARK   17  A    between atoms: _46  and  _47
REMARK   18  A    between atoms: _46  and  _49
REMARK   19  A    between atoms: _49  and  _50
REMARK   20  A    between atoms: _55  and  _56
REMARK   21  A    between atoms: _58  and  _60
REMARK   22  A    between atoms: _60  and  _61
REMARK   23  A    between atoms: _64  and  _66
REMARK   24  A    between atoms: _66  and  _67
REMARK   25  A    between atoms: _66  and  _69
REMARK   26  A    between atoms: _69  and  _70
REMARK   27  A    between atoms: _73  and  _75
REMARK   28  A    between atoms: _75  and  _76
REMARK   29  A    between atoms: _75  and  _78
REMARK   30  A    between atoms: _78  and  _79
REMARK   31  A    between atoms: _79  and  _80
REMARK   32  A    between atoms: _83  and  _85
REMARK   33  A    between atoms: _85  and  _86
REMARK   34  A    between atoms: _85  and  _88
REMARK   35  A    between atoms: _88  and  _89
REMARK   36  A    between atoms: _92  and  _94
REMARK   37  A    between atoms: _94  and  _95
REMARK   38  A    between atoms: _94  and  _97
REMARK   39  A    between atoms: _97  and  _98
REMARK   40  A    between atoms: _98  and  _99
REMARK   41  A    between atoms: _99  and  _100
REMARK   42  A    between atoms: _100  and  _101
REMARK   43  A    between atoms: _105  and  _107
REMARK   44  A    between atoms: _107  and  _108
REMARK   45  A    between atoms: _107  and  _110
REMARK   46  A    between atoms: _113  and  _115
REMARK   47  A    between atoms: _115  and  _116
REMARK   48  A    between atoms: _115  and  _118
REMARK   49  A    between atoms: _118  and  _119
REMARK   50  A    between atoms: _119  and  _120
REMARK   51  A    between atoms: _120  and  _121
REMARK   52  A    between atoms: _121  and  _122
REMARK   53  A    between atoms: _126  and  _128
REMARK   54  A    between atoms: _128  and  _129
REMARK   55  A    between atoms: _128  and  _131
REMARK   56  A    between atoms: _133  and  _135
REMARK   57  A    between atoms: _135  and  _136
REMARK   58  A    between atoms: _138  and  _140
REMARK   59  A    between atoms: _140  and  _141
REMARK   60  A    between atoms: _143  and  _145
REMARK   61  A    between atoms: _145  and  _146
REMARK   62  A    between atoms: _148  and  _150
REMARK   63  A    between atoms: _150  and  _151
REMARK   64  A    between atoms: _150  and  _153
REMARK   65  A    between atoms: _153  and  _154
REMARK   66  A    between atoms: _157  and  _159
REMARK   67  A    between atoms: _159  and  _160
REMARK   68  A    between atoms: _159  and  _162
REMARK   69  A    between atoms: _162  and  _163
REMARK   70  A    between atoms: _166  and  _168
REMARK   71  A    between atoms: _168  and  _169
REMARK   72  A    between atoms: _168  and  _171
REMARK   73  A    between atoms: _171  and  _172
REMARK   74  A    between atoms: _175  and  _177
REMARK   75  A    between atoms: _177  and  _178
REMARK   76  A    between atoms: _177  and  _180
REMARK   77  A    between atoms: _180  and  _181
REMARK   78  A    between atoms: _191  and  _193
REMARK   79  A    between atoms: _193  and  _194
REMARK   80  A    between atoms: _193  and  _196
REMARK   81  A    between atoms: _196  and  _197
REMARK   82  A    between atoms: _197  and  _198
REMARK   83  A    between atoms: _198  and  _199
REMARK   84  A    between atoms: _199  and  _200
REMARK   85  A    between atoms: _205  and  _206
REMARK   86  A    between atoms: _211  and  _213
REMARK   87  A    between atoms: _213  and  _214
REMARK   88  A    between atoms: _213  and  _216
REMARK   89  A    between atoms: _216  and  _217
REMARK   90  A    between atoms: _217  and  _218
REMARK   91  A    between atoms: _221  and  _223
REMARK   92  A    between atoms: _223  and  _224
REMARK   93  A    between atoms: _223  and  _226
REMARK   94  A    between atoms: _226  and  _227
REMARK   95  A    between atoms: _231  and  _232
REMARK   96  A    between atoms: _237  and  _239
REMARK   97  A    between atoms: _239  and  _240
REMARK   98  A    between atoms: _239  and  _242
REMARK   99  A    between atoms: _242  and  _243
REMARK  100  A    between atoms: _243  and  _244
REMARK  101  A    between atoms: _247  and  _249
REMARK  102  A    between atoms: _249  and  _250
REMARK  103  A    between atoms: _249  and  _252
REMARK  104  A    between atoms: _252  and  _253
REMARK  105  A    between atoms: _253  and  _254
REMARK  106  A    between atoms: _259  and  _261
REMARK  107  A    between atoms: _261  and  _262
REMARK  108  A    between atoms: _261  and  _264
REMARK  109  A    between atoms: _264  and  _265
REMARK  110  A    between atoms: _270  and  _272
REMARK  111  A    between atoms: _272  and  _273
REMARK  112  A    between atoms: _272  and  _275
REMARK  113  A    between atoms: _275  and  _276
REMARK  114  A    between atoms: _276  and  _277
REMARK  115  A    between atoms: _277  and  _278
REMARK  116  A    between atoms: _278  and  _279
REMARK  117  A    between atoms: _283  and  _285
REMARK  118  A    between atoms: _285  and  _286
REMARK  119  A    between atoms: _285  and  _288
REMARK  120  A    between atoms: _288  and  _289
REMARK  121  A    between atoms: _299  and  _301
REMARK  122  A    between atoms: _301  and  _302
REMARK  123  A    between atoms: _301  and  _304
REMARK  124  A    between atoms: _304  and  _305
REMARK  125  A    between atoms: _310  and  _311
REMARK                            x       y       z     vdW  Elec       q    Type
REMARK                         _______ _______ _______ _____ _____    ______ ____
ROOT
ATOM      1  O   HOH     1      15.091   8.336  27.284  0.00  0.00    +0.000 OA
ENDROOT
TORSDOF 0
