REMARK  Name = ../refined-set-2016/4ewn/4ewn_pocket.pdb
REMARK  196 active torsions:
REMARK  status: ('A' for Active; 'I' for Inactive)
REMARK    1  A    between atoms: _1  and  _3
REMARK    2  A    between atoms: _3  and  _4
REMARK    3  A    between atoms: _3  and  _6
REMARK    4  A    between atoms: _6  and  _7
REMARK    5  A    between atoms: _10  and  _12
REMARK    6  A    between atoms: _12  and  _13
REMARK    7  A    between atoms: _16  and  _18
REMARK    8  A    between atoms: _18  and  _19
REMARK    9  A    between atoms: _18  and  _21
REMARK   10  A    between atoms: _23  and  _25
REMARK   11  A    between atoms: _25  and  _26
REMARK   12  A    between atoms: _25  and  _28
REMARK   13  A    between atoms: _28  and  _29
REMARK   14  A    between atoms: _32  and  _34
REMARK   15  A    between atoms: _34  and  _35
REMARK   16  A    between atoms: _34  and  _37
REMARK   17  A    between atoms: _37  and  _38
REMARK   18  A    between atoms: _41  and  _43
REMARK   19  A    between atoms: _43  and  _44
REMARK   20  A    between atoms: _43  and  _46
REMARK   21  A    between atoms: _49  and  _51
REMARK   22  A    between atoms: _51  and  _52
REMARK   23  A    between atoms: _51  and  _54
REMARK   24  A    between atoms: _54  and  _55
REMARK   25  A    between atoms: _58  and  _60
REMARK   26  A    between atoms: _60  and  _61
REMARK   27  A    between atoms: _60  and  _63
REMARK   28  A    between atoms: _63  and  _64
REMARK   29  A    between atoms: _67  and  _69
REMARK   30  A    between atoms: _69  and  _70
REMARK   31  A    between atoms: _69  and  _72
REMARK   32  A    between atoms: _72  and  _73
REMARK   33  A    between atoms: _76  and  _78
REMARK   34  A    between atoms: _78  and  _79
REMARK   35  A    between atoms: _81  and  _83
REMARK   36  A    between atoms: _83  and  _84
REMARK   37  A    between atoms: _86  and  _88
REMARK   38  A    between atoms: _88  and  _89
REMARK   39  A    between atoms: _91  and  _93
REMARK   40  A    between atoms: _93  and  _94
REMARK   41  A    between atoms: _93  and  _96
REMARK   42  A    between atoms: _96  and  _97
REMARK   43  A    between atoms: _99  and  _101
REMARK   44  A    between atoms: _101  and  _102
REMARK   45  A    between atoms: _101  and  _104
REMARK   46  A    between atoms: _104  and  _105
REMARK   47  A    between atoms: _110  and  _112
REMARK   48  A    between atoms: _112  and  _113
REMARK   49  A    between atoms: _112  and  _115
REMARK   50  A    between atoms: _115  and  _116
REMARK   51  A    between atoms: _119  and  _121
REMARK   52  A    between atoms: _121  and  _122
REMARK   53  A    between atoms: _125  and  _127
REMARK   54  A    between atoms: _127  and  _128
REMARK   55  A    between atoms: _127  and  _130
REMARK   56  A    between atoms: _130  and  _131
REMARK   57  A    between atoms: _134  and  _136
REMARK   58  A    between atoms: _136  and  _137
REMARK   59  A    between atoms: _136  and  _139
REMARK   60  A    between atoms: _142  and  _144
REMARK   61  A    between atoms: _144  and  _145
REMARK   62  A    between atoms: _148  and  _150
REMARK   63  A    between atoms: _150  and  _151
REMARK   64  A    between atoms: _150  and  _153
REMARK   65  A    between atoms: _153  and  _154
REMARK   66  A    between atoms: _154  and  _155
REMARK   67  A    between atoms: _155  and  _156
REMARK   68  A    between atoms: _156  and  _157
REMARK   69  A    between atoms: _161  and  _163
REMARK   70  A    between atoms: _163  and  _164
REMARK   71  A    between atoms: _163  and  _166
REMARK   72  A    between atoms: _166  and  _167
REMARK   73  A    between atoms: _173  and  _175
REMARK   74  A    between atoms: _175  and  _176
REMARK   75  A    between atoms: _175  and  _178
REMARK   76  A    between atoms: _178  and  _179
REMARK   77  A    between atoms: _182  and  _184
REMARK   78  A    between atoms: _184  and  _185
REMARK   79  A    between atoms: _184  and  _187
REMARK   80  A    between atoms: _187  and  _188
REMARK   81  A    between atoms: _193  and  _194
REMARK   82  A    between atoms: _196  and  _198
REMARK   83  A    between atoms: _198  and  _199
REMARK   84  A    between atoms: _198  and  _201
REMARK   85  A    between atoms: _201  and  _202
REMARK   86  A    between atoms: _204  and  _206
REMARK   87  A    between atoms: _206  and  _207
REMARK   88  A    between atoms: _209  and  _211
REMARK   89  A    between atoms: _211  and  _212
REMARK   90  A    between atoms: _211  and  _214
REMARK   91  A    between atoms: _214  and  _215
REMARK   92  A    between atoms: _215  and  _216
REMARK   93  A    between atoms: _216  and  _217
REMARK   94  A    between atoms: _217  and  _218
REMARK   95  A    between atoms: _222  and  _224
REMARK   96  A    between atoms: _224  and  _225
REMARK   97  A    between atoms: _224  and  _227
REMARK   98  A    between atoms: _227  and  _228
REMARK   99  A    between atoms: _231  and  _233
REMARK  100  A    between atoms: _233  and  _234
REMARK  101  A    between atoms: _233  and  _236
REMARK  102  A    between atoms: _236  and  _237
REMARK  103  A    between atoms: _240  and  _242
REMARK  104  A    between atoms: _242  and  _243
REMARK  105  A    between atoms: _242  and  _245
REMARK  106  A    between atoms: _245  and  _246
REMARK  107  A    between atoms: _249  and  _251
REMARK  108  A    between atoms: _251  and  _252
REMARK  109  A    between atoms: _251  and  _254
REMARK  110  A    between atoms: _254  and  _255
REMARK  111  A    between atoms: _257  and  _259
REMARK  112  A    between atoms: _259  and  _260
REMARK  113  A    between atoms: _259  and  _262
REMARK  114  A    between atoms: _262  and  _263
REMARK  115  A    between atoms: _266  and  _268
REMARK  116  A    between atoms: _268  and  _269
REMARK  117  A    between atoms: _268  and  _271
REMARK  118  A    between atoms: _271  and  _272
REMARK  119  A    between atoms: _275  and  _277
REMARK  120  A    between atoms: _277  and  _278
REMARK  121  A    between atoms: _277  and  _280
REMARK  122  A    between atoms: _280  and  _281
REMARK  123  A    between atoms: _281  and  _282
REMARK  124  A    between atoms: _282  and  _283
REMARK  125  A    between atoms: _292  and  _294
REMARK  126  A    between atoms: _294  and  _295
REMARK  127  A    between atoms: _294  and  _297
REMARK  128  A    between atoms: _300  and  _302
REMARK  129  A    between atoms: _302  and  _303
REMARK  130  A    between atoms: _305  and  _307
REMARK  131  A    between atoms: _307  and  _308
REMARK  132  A    between atoms: _307  and  _310
REMARK  133  A    between atoms: _310  and  _311
REMARK  134  A    between atoms: _314  and  _316
REMARK  135  A    between atoms: _316  and  _317
REMARK  136  A    between atoms: _316  and  _319
REMARK  137  A    between atoms: _319  and  _320
REMARK  138  A    between atoms: _320  and  _321
REMARK  139  A    between atoms: _321  and  _322
REMARK  140  A    between atoms: _322  and  _323
REMARK  141  A    between atoms: _327  and  _329
REMARK  142  A    between atoms: _329  and  _330
REMARK  143  A    between atoms: _329  and  _332
REMARK  144  A    between atoms: _332  and  _333
REMARK  145  A    between atoms: _335  and  _337
REMARK  146  A    between atoms: _337  and  _338
REMARK  147  A    between atoms: _340  and  _342
REMARK  148  A    between atoms: _342  and  _343
REMARK  149  A    between atoms: _342  and  _345
REMARK  150  A    between atoms: _345  and  _346
REMARK  151  A    between atoms: _351  and  _352
REMARK  152  A    between atoms: _354  and  _356
REMARK  153  A    between atoms: _356  and  _357
REMARK  154  A    between atoms: _360  and  _362
REMARK  155  A    between atoms: _362  and  _363
REMARK  156  A    between atoms: _362  and  _365
REMARK  157  A    between atoms: _365  and  _366
REMARK  158  A    between atoms: _368  and  _370
REMARK  159  A    between atoms: _370  and  _371
REMARK  160  A    between atoms: _373  and  _375
REMARK  161  A    between atoms: _375  and  _376
REMARK  162  A    between atoms: _378  and  _380
REMARK  163  A    between atoms: _380  and  _381
REMARK  164  A    between atoms: _384  and  _386
REMARK  165  A    between atoms: _386  and  _387
REMARK  166  A    between atoms: _389  and  _391
REMARK  167  A    between atoms: _391  and  _392
REMARK  168  A    between atoms: _391  and  _394
REMARK  169  A    between atoms: _394  and  _395
REMARK  170  A    between atoms: _401  and  _403
REMARK  171  A    between atoms: _403  and  _404
REMARK  172  A    between atoms: _403  and  _406
REMARK  173  A    between atoms: _406  and  _407
REMARK  174  A    between atoms: _410  and  _412
REMARK  175  A    between atoms: _412  and  _413
REMARK  176  A    between atoms: _416  and  _418
REMARK  177  A    between atoms: _418  and  _419
REMARK  178  A    between atoms: _422  and  _424
REMARK  179  A    between atoms: _424  and  _425
REMARK  180  A    between atoms: _424  and  _427
REMARK  181  A    between atoms: _427  and  _428
REMARK  182  A    between atoms: _430  and  _432
REMARK  183  A    between atoms: _432  and  _433
REMARK  184  A    between atoms: _432  and  _435
REMARK  185  A    between atoms: _438  and  _440
REMARK  186  A    between atoms: _440  and  _441
REMARK  187  A    between atoms: _440  and  _443
REMARK  188  A    between atoms: _443  and  _444
REMARK  189  A    between atoms: _450  and  _452
REMARK  190  A    between atoms: _452  and  _453
REMARK  191  A    between atoms: _452  and  _455
REMARK  192  A    between atoms: _455  and  _456
REMARK  193  A    between atoms: _461  and  _463
REMARK  194  A    between atoms: _463  and  _464
REMARK  195  A    between atoms: _463  and  _466
REMARK  196  A    between atoms: _466  and  _467
REMARK                            x       y       z     vdW  Elec       q    Type
REMARK                         _______ _______ _______ _____ _____    ______ ____
ROOT
ATOM      1  CA  CYS A   3      18.248  12.528  18.515  0.00  0.00    +0.160 C 
ENDROOT
BRANCH   1   3
ATOM      2  C   ALA A   2      18.325  10.210  19.207  0.00  0.00    +0.241 C 
ATOM      3  N   CYS A   3      18.617  11.475  19.452  0.00  0.00    -0.296 N 
ATOM      4  H   CYS A   3      19.119  11.723  20.328  0.00  0.00    +0.150 HD
ATOM      5  O   ALA A   2      17.741   9.837  18.186  0.00  0.00    -0.273 OA
BRANCH   2   6
ATOM      6  CA  ALA A   2      18.744   9.223  20.268  0.00  0.00    +0.149 C 
ATOM      7  CB  ALA A   2      19.991   8.487  19.859  0.00  0.00    +0.031 C 
BRANCH   6  10
ATOM      8  C   ILE A   1      16.871   8.454  21.564  0.00  0.00    +0.238 C 
ATOM      9  O   ILE A   1      17.053   9.358  22.393  0.00  0.00    -0.274 OA
ATOM     10  N   ALA A   2      17.651   8.295  20.502  0.00  0.00    -0.297 N 
ATOM     11  H   ALA A   2      17.481   7.510  19.841  0.00  0.00    +0.150 HD
BRANCH   8  12
ATOM     12  CA  ILE A   1      15.750   7.437  21.733  0.00  0.00    +0.145 C 
BRANCH  12  13
ATOM     13  N   ILE A   1      15.735   6.921  23.090  0.00  0.00    -0.238 NA
ATOM     14  H   ILE A   1      15.665   7.578  23.893  0.00  0.00    +0.142 HD
ENDBRANCH  12  13
BRANCH  12  15
ATOM     15  CB  ILE A   1      14.396   8.058  21.398  0.00  0.00    +0.025 C 
ATOM     16  CG2 ILE A   1      14.391   8.660  19.986  0.00  0.00    +0.002 C 
BRANCH  15  17
ATOM     17  CG1 ILE A   1      13.297   7.001  21.568  0.00  0.00    +0.002 C 
ATOM     18  CD1 ILE A   1      11.964   7.404  21.013  0.00  0.00    +0.000 C 
ENDBRANCH  15  17
ENDBRANCH  12  15
ENDBRANCH   8  12
ENDBRANCH   6  10
ENDBRANCH   2   6
ENDBRANCH   1   3
BRANCH   1  19
ATOM     19  C   CYS A   3      19.492  13.058  17.824  0.00  0.00    +0.242 C 
ATOM     20  O   CYS A   3      20.417  13.543  18.470  0.00  0.00    -0.273 OA
ATOM     21  N   LEU A   4      19.506  12.966  16.503  0.00  0.00    -0.297 N 
ATOM     22  H   LEU A   4      18.676  12.576  16.012  0.00  0.00    +0.150 HD
BRANCH  21  23
ATOM     23  CA  LEU A   4      20.653  13.397  15.723  0.00  0.00    +0.149 C 
BRANCH  23  24
ATOM     24  C   LEU A   4      20.321  14.704  15.017  0.00  0.00    +0.241 C 
ATOM     25  N   ASP A   5      21.006  15.792  15.372  0.00  0.00    -0.298 N 
ATOM     26  H   ASP A   5      21.709  15.728  16.136  0.00  0.00    +0.150 HD
ATOM     27  O   LEU A   4      19.437  14.720  14.159  0.00  0.00    -0.273 OA
BRANCH  25  28
ATOM     28  CA  ASP A   5      20.783  17.074  14.703  0.00  0.00    +0.148 C 
BRANCH  28  29
ATOM     29  C   ASP A   5      21.519  17.080  13.366  0.00  0.00    +0.227 C 
ATOM     30  O   ASP A   5      22.720  16.792  13.306  0.00  0.00    -0.286 OA
ENDBRANCH  28  29
BRANCH  28  31
ATOM     31  CB  ASP A   5      21.263  18.257  15.548  0.00  0.00    +0.142 C 
BRANCH  31  32
ATOM     32  CG  ASP A   5      20.418  18.480  16.798  0.00  0.00    +0.367 C 
ATOM     33  OD2 ASP A   5      20.873  19.251  17.673  0.00  0.00    -0.246 OA
ATOM     34  OD1 ASP A   5      19.309  17.903  16.905  0.00  0.00    -0.246 OA
ENDBRANCH  31  32
ENDBRANCH  28  31
ENDBRANCH  25  28
ENDBRANCH  23  24
BRANCH  23  35
ATOM     35  CB  LEU A   4      20.988  12.334  14.677  0.00  0.00    +0.029 C 
BRANCH  35  36
ATOM     36  CG  LEU A   4      21.427  10.980  15.230  0.00  0.00    +0.002 C 
ATOM     37  CD2 LEU A   4      22.373  11.242  16.365  0.00  0.00    +0.000 C 
ATOM     38  CD1 LEU A   4      22.092  10.140  14.160  0.00  0.00    +0.000 C 
ENDBRANCH  35  36
ENDBRANCH  23  35
ENDBRANCH  21  23
ENDBRANCH   1  19
BRANCH   1  39
ATOM     39  CB  CYS A   3      17.518  13.660  19.238  0.00  0.00    +0.098 C 
ATOM     40  SG  CYS A   3      17.017  15.087  18.194  0.00  0.00    -0.080 S 
ENDBRANCH   1  39
TORSDOF 17
REMARK  Name = ../refined-set-2016/4ewn/4ewn_pocket.pdb
REMARK  196 active torsions:
REMARK  status: ('A' for Active; 'I' for Inactive)
REMARK    1  A    between atoms: _1  and  _3
REMARK    2  A    between atoms: _3  and  _4
REMARK    3  A    between atoms: _3  and  _6
REMARK    4  A    between atoms: _6  and  _7
REMARK    5  A    between atoms: _10  and  _12
REMARK    6  A    between atoms: _12  and  _13
REMARK    7  A    between atoms: _16  and  _18
REMARK    8  A    between atoms: _18  and  _19
REMARK    9  A    between atoms: _18  and  _21
REMARK   10  A    between atoms: _23  and  _25
REMARK   11  A    between atoms: _25  and  _26
REMARK   12  A    between atoms: _25  and  _28
REMARK   13  A    between atoms: _28  and  _29
REMARK   14  A    between atoms: _32  and  _34
REMARK   15  A    between atoms: _34  and  _35
REMARK   16  A    between atoms: _34  and  _37
REMARK   17  A    between atoms: _37  and  _38
REMARK   18  A    between atoms: _41  and  _43
REMARK   19  A    between atoms: _43  and  _44
REMARK   20  A    between atoms: _43  and  _46
REMARK   21  A    between atoms: _49  and  _51
REMARK   22  A    between atoms: _51  and  _52
REMARK   23  A    between atoms: _51  and  _54
REMARK   24  A    between atoms: _54  and  _55
REMARK   25  A    between atoms: _58  and  _60
REMARK   26  A    between atoms: _60  and  _61
REMARK   27  A    between atoms: _60  and  _63
REMARK   28  A    between atoms: _63  and  _64
REMARK   29  A    between atoms: _67  and  _69
REMARK   30  A    between atoms: _69  and  _70
REMARK   31  A    between atoms: _69  and  _72
REMARK   32  A    between atoms: _72  and  _73
REMARK   33  A    between atoms: _76  and  _78
REMARK   34  A    between atoms: _78  and  _79
REMARK   35  A    between atoms: _81  and  _83
REMARK   36  A    between atoms: _83  and  _84
REMARK   37  A    between atoms: _86  and  _88
REMARK   38  A    between atoms: _88  and  _89
REMARK   39  A    between atoms: _91  and  _93
REMARK   40  A    between atoms: _93  and  _94
REMARK   41  A    between atoms: _93  and  _96
REMARK   42  A    between atoms: _96  and  _97
REMARK   43  A    between atoms: _99  and  _101
REMARK   44  A    between atoms: _101  and  _102
REMARK   45  A    between atoms: _101  and  _104
REMARK   46  A    between atoms: _104  and  _105
REMARK   47  A    between atoms: _110  and  _112
REMARK   48  A    between atoms: _112  and  _113
REMARK   49  A    between atoms: _112  and  _115
REMARK   50  A    between atoms: _115  and  _116
REMARK   51  A    between atoms: _119  and  _121
REMARK   52  A    between atoms: _121  and  _122
REMARK   53  A    between atoms: _125  and  _127
REMARK   54  A    between atoms: _127  and  _128
REMARK   55  A    between atoms: _127  and  _130
REMARK   56  A    between atoms: _130  and  _131
REMARK   57  A    between atoms: _134  and  _136
REMARK   58  A    between atoms: _136  and  _137
REMARK   59  A    between atoms: _136  and  _139
REMARK   60  A    between atoms: _142  and  _144
REMARK   61  A    between atoms: _144  and  _145
REMARK   62  A    between atoms: _148  and  _150
REMARK   63  A    between atoms: _150  and  _151
REMARK   64  A    between atoms: _150  and  _153
REMARK   65  A    between atoms: _153  and  _154
REMARK   66  A    between atoms: _154  and  _155
REMARK   67  A    between atoms: _155  and  _156
REMARK   68  A    between atoms: _156  and  _157
REMARK   69  A    between atoms: _161  and  _163
REMARK   70  A    between atoms: _163  and  _164
REMARK   71  A    between atoms: _163  and  _166
REMARK   72  A    between atoms: _166  and  _167
REMARK   73  A    between atoms: _173  and  _175
REMARK   74  A    between atoms: _175  and  _176
REMARK   75  A    between atoms: _175  and  _178
REMARK   76  A    between atoms: _178  and  _179
REMARK   77  A    between atoms: _182  and  _184
REMARK   78  A    between atoms: _184  and  _185
REMARK   79  A    between atoms: _184  and  _187
REMARK   80  A    between atoms: _187  and  _188
REMARK   81  A    between atoms: _193  and  _194
REMARK   82  A    between atoms: _196  and  _198
REMARK   83  A    between atoms: _198  and  _199
REMARK   84  A    between atoms: _198  and  _201
REMARK   85  A    between atoms: _201  and  _202
REMARK   86  A    between atoms: _204  and  _206
REMARK   87  A    between atoms: _206  and  _207
REMARK   88  A    between atoms: _209  and  _211
REMARK   89  A    between atoms: _211  and  _212
REMARK   90  A    between atoms: _211  and  _214
REMARK   91  A    between atoms: _214  and  _215
REMARK   92  A    between atoms: _215  and  _216
REMARK   93  A    between atoms: _216  and  _217
REMARK   94  A    between atoms: _217  and  _218
REMARK   95  A    between atoms: _222  and  _224
REMARK   96  A    between atoms: _224  and  _225
REMARK   97  A    between atoms: _224  and  _227
REMARK   98  A    between atoms: _227  and  _228
REMARK   99  A    between atoms: _231  and  _233
REMARK  100  A    between atoms: _233  and  _234
REMARK  101  A    between atoms: _233  and  _236
REMARK  102  A    between atoms: _236  and  _237
REMARK  103  A    between atoms: _240  and  _242
REMARK  104  A    between atoms: _242  and  _243
REMARK  105  A    between atoms: _242  and  _245
REMARK  106  A    between atoms: _245  and  _246
REMARK  107  A    between atoms: _249  and  _251
REMARK  108  A    between atoms: _251  and  _252
REMARK  109  A    between atoms: _251  and  _254
REMARK  110  A    between atoms: _254  and  _255
REMARK  111  A    between atoms: _257  and  _259
REMARK  112  A    between atoms: _259  and  _260
REMARK  113  A    between atoms: _259  and  _262
REMARK  114  A    between atoms: _262  and  _263
REMARK  115  A    between atoms: _266  and  _268
REMARK  116  A    between atoms: _268  and  _269
REMARK  117  A    between atoms: _268  and  _271
REMARK  118  A    between atoms: _271  and  _272
REMARK  119  A    between atoms: _275  and  _277
REMARK  120  A    between atoms: _277  and  _278
REMARK  121  A    between atoms: _277  and  _280
REMARK  122  A    between atoms: _280  and  _281
REMARK  123  A    between atoms: _281  and  _282
REMARK  124  A    between atoms: _282  and  _283
REMARK  125  A    between atoms: _292  and  _294
REMARK  126  A    between atoms: _294  and  _295
REMARK  127  A    between atoms: _294  and  _297
REMARK  128  A    between atoms: _300  and  _302
REMARK  129  A    between atoms: _302  and  _303
REMARK  130  A    between atoms: _305  and  _307
REMARK  131  A    between atoms: _307  and  _308
REMARK  132  A    between atoms: _307  and  _310
REMARK  133  A    between atoms: _310  and  _311
REMARK  134  A    between atoms: _314  and  _316
REMARK  135  A    between atoms: _316  and  _317
REMARK  136  A    between atoms: _316  and  _319
REMARK  137  A    between atoms: _319  and  _320
REMARK  138  A    between atoms: _320  and  _321
REMARK  139  A    between atoms: _321  and  _322
REMARK  140  A    between atoms: _322  and  _323
REMARK  141  A    between atoms: _327  and  _329
REMARK  142  A    between atoms: _329  and  _330
REMARK  143  A    between atoms: _329  and  _332
REMARK  144  A    between atoms: _332  and  _333
REMARK  145  A    between atoms: _335  and  _337
REMARK  146  A    between atoms: _337  and  _338
REMARK  147  A    between atoms: _340  and  _342
REMARK  148  A    between atoms: _342  and  _343
REMARK  149  A    between atoms: _342  and  _345
REMARK  150  A    between atoms: _345  and  _346
REMARK  151  A    between atoms: _351  and  _352
REMARK  152  A    between atoms: _354  and  _356
REMARK  153  A    between atoms: _356  and  _357
REMARK  154  A    between atoms: _360  and  _362
REMARK  155  A    between atoms: _362  and  _363
REMARK  156  A    between atoms: _362  and  _365
REMARK  157  A    between atoms: _365  and  _366
REMARK  158  A    between atoms: _368  and  _370
REMARK  159  A    between atoms: _370  and  _371
REMARK  160  A    between atoms: _373  and  _375
REMARK  161  A    between atoms: _375  and  _376
REMARK  162  A    between atoms: _378  and  _380
REMARK  163  A    between atoms: _380  and  _381
REMARK  164  A    between atoms: _384  and  _386
REMARK  165  A    between atoms: _386  and  _387
REMARK  166  A    between atoms: _389  and  _391
REMARK  167  A    between atoms: _391  and  _392
REMARK  168  A    between atoms: _391  and  _394
REMARK  169  A    between atoms: _394  and  _395
REMARK  170  A    between atoms: _401  and  _403
REMARK  171  A    between atoms: _403  and  _404
REMARK  172  A    between atoms: _403  and  _406
REMARK  173  A    between atoms: _406  and  _407
REMARK  174  A    between atoms: _410  and  _412
REMARK  175  A    between atoms: _412  and  _413
REMARK  176  A    between atoms: _416  and  _418
REMARK  177  A    between atoms: _418  and  _419
REMARK  178  A    between atoms: _422  and  _424
REMARK  179  A    between atoms: _424  and  _425
REMARK  180  A    between atoms: _424  and  _427
REMARK  181  A    between atoms: _427  and  _428
REMARK  182  A    between atoms: _430  and  _432
REMARK  183  A    between atoms: _432  and  _433
REMARK  184  A    between atoms: _432  and  _435
REMARK  185  A    between atoms: _438  and  _440
REMARK  186  A    between atoms: _440  and  _441
REMARK  187  A    between atoms: _440  and  _443
REMARK  188  A    between atoms: _443  and  _444
REMARK  189  A    between atoms: _450  and  _452
REMARK  190  A    between atoms: _452  and  _453
REMARK  191  A    between atoms: _452  and  _455
REMARK  192  A    between atoms: _455  and  _456
REMARK  193  A    between atoms: _461  and  _463
REMARK  194  A    between atoms: _463  and  _464
REMARK  195  A    between atoms: _463  and  _466
REMARK  196  A    between atoms: _466  and  _467
REMARK                            x       y       z     vdW  Elec       q    Type
REMARK                         _______ _______ _______ _____ _____    ______ ____
ROOT
ATOM      1  CA  VAL A   1      15.117  10.970  15.573  0.00  0.00    +0.133 C 
ENDROOT
BRANCH   1   2
ATOM      2  CB  VAL A   1      14.427  11.853  16.632  0.00  0.00    +0.023 C 
ATOM      3  CG2 VAL A   1      13.318  11.061  17.342  0.00  0.00    +0.002 C 
ATOM      4  CG1 VAL A   1      13.836  13.108  15.964  0.00  0.00    +0.002 C 
ENDBRANCH   1   2
BRANCH   1   5
ATOM      5  N   VAL A   1      15.783   9.828  16.157  0.00  0.00    -0.239 NA
ATOM      6  H   VAL A   1      16.543   9.964  16.854  0.00  0.00    +0.142 HD
ENDBRANCH   1   5
BRANCH   1   7
ATOM      7  C   VAL A   1      16.160  11.763  14.785  0.00  0.00    +0.224 C 
ATOM      8  O   VAL A   1      17.186  12.159  15.323  0.00  0.00    -0.287 OA
ENDBRANCH   1   7
TORSDOF 3
REMARK  Name = ../refined-set-2016/4ewn/4ewn_pocket.pdb
REMARK  196 active torsions:
REMARK  status: ('A' for Active; 'I' for Inactive)
REMARK    1  A    between atoms: _1  and  _3
REMARK    2  A    between atoms: _3  and  _4
REMARK    3  A    between atoms: _3  and  _6
REMARK    4  A    between atoms: _6  and  _7
REMARK    5  A    between atoms: _10  and  _12
REMARK    6  A    between atoms: _12  and  _13
REMARK    7  A    between atoms: _16  and  _18
REMARK    8  A    between atoms: _18  and  _19
REMARK    9  A    between atoms: _18  and  _21
REMARK   10  A    between atoms: _23  and  _25
REMARK   11  A    between atoms: _25  and  _26
REMARK   12  A    between atoms: _25  and  _28
REMARK   13  A    between atoms: _28  and  _29
REMARK   14  A    between atoms: _32  and  _34
REMARK   15  A    between atoms: _34  and  _35
REMARK   16  A    between atoms: _34  and  _37
REMARK   17  A    between atoms: _37  and  _38
REMARK   18  A    between atoms: _41  and  _43
REMARK   19  A    between atoms: _43  and  _44
REMARK   20  A    between atoms: _43  and  _46
REMARK   21  A    between atoms: _49  and  _51
REMARK   22  A    between atoms: _51  and  _52
REMARK   23  A    between atoms: _51  and  _54
REMARK   24  A    between atoms: _54  and  _55
REMARK   25  A    between atoms: _58  and  _60
REMARK   26  A    between atoms: _60  and  _61
REMARK   27  A    between atoms: _60  and  _63
REMARK   28  A    between atoms: _63  and  _64
REMARK   29  A    between atoms: _67  and  _69
REMARK   30  A    between atoms: _69  and  _70
REMARK   31  A    between atoms: _69  and  _72
REMARK   32  A    between atoms: _72  and  _73
REMARK   33  A    between atoms: _76  and  _78
REMARK   34  A    between atoms: _78  and  _79
REMARK   35  A    between atoms: _81  and  _83
REMARK   36  A    between atoms: _83  and  _84
REMARK   37  A    between atoms: _86  and  _88
REMARK   38  A    between atoms: _88  and  _89
REMARK   39  A    between atoms: _91  and  _93
REMARK   40  A    between atoms: _93  and  _94
REMARK   41  A    between atoms: _93  and  _96
REMARK   42  A    between atoms: _96  and  _97
REMARK   43  A    between atoms: _99  and  _101
REMARK   44  A    between atoms: _101  and  _102
REMARK   45  A    between atoms: _101  and  _104
REMARK   46  A    between atoms: _104  and  _105
REMARK   47  A    between atoms: _110  and  _112
REMARK   48  A    between atoms: _112  and  _113
REMARK   49  A    between atoms: _112  and  _115
REMARK   50  A    between atoms: _115  and  _116
REMARK   51  A    between atoms: _119  and  _121
REMARK   52  A    between atoms: _121  and  _122
REMARK   53  A    between atoms: _125  and  _127
REMARK   54  A    between atoms: _127  and  _128
REMARK   55  A    between atoms: _127  and  _130
REMARK   56  A    between atoms: _130  and  _131
REMARK   57  A    between atoms: _134  and  _136
REMARK   58  A    between atoms: _136  and  _137
REMARK   59  A    between atoms: _136  and  _139
REMARK   60  A    between atoms: _142  and  _144
REMARK   61  A    between atoms: _144  and  _145
REMARK   62  A    between atoms: _148  and  _150
REMARK   63  A    between atoms: _150  and  _151
REMARK   64  A    between atoms: _150  and  _153
REMARK   65  A    between atoms: _153  and  _154
REMARK   66  A    between atoms: _154  and  _155
REMARK   67  A    between atoms: _155  and  _156
REMARK   68  A    between atoms: _156  and  _157
REMARK   69  A    between atoms: _161  and  _163
REMARK   70  A    between atoms: _163  and  _164
REMARK   71  A    between atoms: _163  and  _166
REMARK   72  A    between atoms: _166  and  _167
REMARK   73  A    between atoms: _173  and  _175
REMARK   74  A    between atoms: _175  and  _176
REMARK   75  A    between atoms: _175  and  _178
REMARK   76  A    between atoms: _178  and  _179
REMARK   77  A    between atoms: _182  and  _184
REMARK   78  A    between atoms: _184  and  _185
REMARK   79  A    between atoms: _184  and  _187
REMARK   80  A    between atoms: _187  and  _188
REMARK   81  A    between atoms: _193  and  _194
REMARK   82  A    between atoms: _196  and  _198
REMARK   83  A    between atoms: _198  and  _199
REMARK   84  A    between atoms: _198  and  _201
REMARK   85  A    between atoms: _201  and  _202
REMARK   86  A    between atoms: _204  and  _206
REMARK   87  A    between atoms: _206  and  _207
REMARK   88  A    between atoms: _209  and  _211
REMARK   89  A    between atoms: _211  and  _212
REMARK   90  A    between atoms: _211  and  _214
REMARK   91  A    between atoms: _214  and  _215
REMARK   92  A    between atoms: _215  and  _216
REMARK   93  A    between atoms: _216  and  _217
REMARK   94  A    between atoms: _217  and  _218
REMARK   95  A    between atoms: _222  and  _224
REMARK   96  A    between atoms: _224  and  _225
REMARK   97  A    between atoms: _224  and  _227
REMARK   98  A    between atoms: _227  and  _228
REMARK   99  A    between atoms: _231  and  _233
REMARK  100  A    between atoms: _233  and  _234
REMARK  101  A    between atoms: _233  and  _236
REMARK  102  A    between atoms: _236  and  _237
REMARK  103  A    between atoms: _240  and  _242
REMARK  104  A    between atoms: _242  and  _243
REMARK  105  A    between atoms: _242  and  _245
REMARK  106  A    between atoms: _245  and  _246
REMARK  107  A    between atoms: _249  and  _251
REMARK  108  A    between atoms: _251  and  _252
REMARK  109  A    between atoms: _251  and  _254
REMARK  110  A    between atoms: _254  and  _255
REMARK  111  A    between atoms: _257  and  _259
REMARK  112  A    between atoms: _259  and  _260
REMARK  113  A    between atoms: _259  and  _262
REMARK  114  A    between atoms: _262  and  _263
REMARK  115  A    between atoms: _266  and  _268
REMARK  116  A    between atoms: _268  and  _269
REMARK  117  A    between atoms: _268  and  _271
REMARK  118  A    between atoms: _271  and  _272
REMARK  119  A    between atoms: _275  and  _277
REMARK  120  A    between atoms: _277  and  _278
REMARK  121  A    between atoms: _277  and  _280
REMARK  122  A    between atoms: _280  and  _281
REMARK  123  A    between atoms: _281  and  _282
REMARK  124  A    between atoms: _282  and  _283
REMARK  125  A    between atoms: _292  and  _294
REMARK  126  A    between atoms: _294  and  _295
REMARK  127  A    between atoms: _294  and  _297
REMARK  128  A    between atoms: _300  and  _302
REMARK  129  A    between atoms: _302  and  _303
REMARK  130  A    between atoms: _305  and  _307
REMARK  131  A    between atoms: _307  and  _308
REMARK  132  A    between atoms: _307  and  _310
REMARK  133  A    between atoms: _310  and  _311
REMARK  134  A    between atoms: _314  and  _316
REMARK  135  A    between atoms: _316  and  _317
REMARK  136  A    between atoms: _316  and  _319
REMARK  137  A    between atoms: _319  and  _320
REMARK  138  A    between atoms: _320  and  _321
REMARK  139  A    between atoms: _321  and  _322
REMARK  140  A    between atoms: _322  and  _323
REMARK  141  A    between atoms: _327  and  _329
REMARK  142  A    between atoms: _329  and  _330
REMARK  143  A    between atoms: _329  and  _332
REMARK  144  A    between atoms: _332  and  _333
REMARK  145  A    between atoms: _335  and  _337
REMARK  146  A    between atoms: _337  and  _338
REMARK  147  A    between atoms: _340  and  _342
REMARK  148  A    between atoms: _342  and  _343
REMARK  149  A    between atoms: _342  and  _345
REMARK  150  A    between atoms: _345  and  _346
REMARK  151  A    between atoms: _351  and  _352
REMARK  152  A    between atoms: _354  and  _356
REMARK  153  A    between atoms: _356  and  _357
REMARK  154  A    between atoms: _360  and  _362
REMARK  155  A    between atoms: _362  and  _363
REMARK  156  A    between atoms: _362  and  _365
REMARK  157  A    between atoms: _365  and  _366
REMARK  158  A    between atoms: _368  and  _370
REMARK  159  A    between atoms: _370  and  _371
REMARK  160  A    between atoms: _373  and  _375
REMARK  161  A    between atoms: _375  and  _376
REMARK  162  A    between atoms: _378  and  _380
REMARK  163  A    between atoms: _380  and  _381
REMARK  164  A    between atoms: _384  and  _386
REMARK  165  A    between atoms: _386  and  _387
REMARK  166  A    between atoms: _389  and  _391
REMARK  167  A    between atoms: _391  and  _392
REMARK  168  A    between atoms: _391  and  _394
REMARK  169  A    between atoms: _394  and  _395
REMARK  170  A    between atoms: _401  and  _403
REMARK  171  A    between atoms: _403  and  _404
REMARK  172  A    between atoms: _403  and  _406
REMARK  173  A    between atoms: _406  and  _407
REMARK  174  A    between atoms: _410  and  _412
REMARK  175  A    between atoms: _412  and  _413
REMARK  176  A    between atoms: _416  and  _418
REMARK  177  A    between atoms: _418  and  _419
REMARK  178  A    between atoms: _422  and  _424
REMARK  179  A    between atoms: _424  and  _425
REMARK  180  A    between atoms: _424  and  _427
REMARK  181  A    between atoms: _427  and  _428
REMARK  182  A    between atoms: _430  and  _432
REMARK  183  A    between atoms: _432  and  _433
REMARK  184  A    between atoms: _432  and  _435
REMARK  185  A    between atoms: _438  and  _440
REMARK  186  A    between atoms: _440  and  _441
REMARK  187  A    between atoms: _440  and  _443
REMARK  188  A    between atoms: _443  and  _444
REMARK  189  A    between atoms: _450  and  _452
REMARK  190  A    between atoms: _452  and  _453
REMARK  191  A    between atoms: _452  and  _455
REMARK  192  A    between atoms: _455  and  _456
REMARK  193  A    between atoms: _461  and  _463
REMARK  194  A    between atoms: _463  and  _464
REMARK  195  A    between atoms: _463  and  _466
REMARK  196  A    between atoms: _466  and  _467
REMARK                            x       y       z     vdW  Elec       q    Type
REMARK                         _______ _______ _______ _____ _____    ______ ____
ROOT
ATOM      1  CA  ASP A   2      16.948  19.104  10.500  0.00  0.00    +0.160 C 
ENDROOT
BRANCH   1   4
ATOM      2  C   LEU A   1      16.939  17.524  12.332  0.00  0.00    +0.238 C 
ATOM      3  O   LEU A   1      18.098  17.828  12.615  0.00  0.00    -0.274 OA
ATOM      4  N   ASP A   2      16.317  18.025  11.271  0.00  0.00    -0.297 N 
ATOM      5  H   ASP A   2      15.387  17.655  10.987  0.00  0.00    +0.150 HD
BRANCH   2   6
ATOM      6  CA  LEU A   1      16.161  16.544  13.204  0.00  0.00    +0.145 C 
BRANCH   6   7
ATOM      7  N   LEU A   1      16.753  15.207  13.186  0.00  0.00    -0.238 NA
ATOM      8  H   LEU A   1      17.671  15.044  13.646  0.00  0.00    +0.142 HD
ENDBRANCH   6   7
BRANCH   6   9
ATOM      9  CB  LEU A   1      16.097  17.073  14.643  0.00  0.00    +0.026 C 
BRANCH   9  10
ATOM     10  CG  LEU A   1      15.263  18.325  14.912  0.00  0.00    +0.002 C 
ATOM     11  CD2 LEU A   1      15.790  19.084  16.120  0.00  0.00    +0.000 C 
ATOM     12  CD1 LEU A   1      13.805  17.941  15.104  0.00  0.00    +0.000 C 
ENDBRANCH   9  10
ENDBRANCH   6   9
ENDBRANCH   2   6
ENDBRANCH   1   4
BRANCH   1  13
ATOM     13  C   ASP A   2      16.783  20.435  11.230  0.00  0.00    +0.241 C 
ATOM     14  N   ILE A   3      17.892  20.978  11.729  0.00  0.00    -0.298 N 
ATOM     15  H   ILE A   3      18.807  20.514  11.557  0.00  0.00    +0.150 HD
ATOM     16  O   ASP A   2      15.674  20.960  11.337  0.00  0.00    -0.273 OA
BRANCH  14  17
ATOM     17  CA  ILE A   3      17.853  22.213  12.514  0.00  0.00    +0.137 C 
BRANCH  17  18
ATOM     18  CB  ILE A   3      19.001  22.279  13.557  0.00  0.00    +0.026 C 
ATOM     19  CG2 ILE A   3      18.893  21.122  14.553  0.00  0.00    +0.002 C 
BRANCH  18  20
ATOM     20  CG1 ILE A   3      20.377  22.295  12.880  0.00  0.00    +0.002 C 
ATOM     21  CD1 ILE A   3      21.519  22.243  13.875  0.00  0.00    +0.000 C 
ENDBRANCH  18  20
ENDBRANCH  17  18
BRANCH  17  22
ATOM     22  C   ILE A   3      17.832  23.494  11.669  0.00  0.00    +0.227 C 
ATOM     23  O   ILE A   3      17.687  24.599  12.206  0.00  0.00    -0.286 OA
ENDBRANCH  17  22
ENDBRANCH  14  17
ENDBRANCH   1  13
BRANCH   1  24
ATOM     24  CB  ASP A   2      16.386  19.204   9.079  0.00  0.00    +0.143 C 
BRANCH  24  25
ATOM     25  CG  ASP A   2      17.219  20.112   8.184  0.00  0.00    +0.367 C 
ATOM     26  OD2 ASP A   2      17.357  21.307   8.500  0.00  0.00    -0.246 OA
ATOM     27  OD1 ASP A   2      17.743  19.630   7.158  0.00  0.00    -0.246 OA
ENDBRANCH  24  25
ENDBRANCH   1  24
TORSDOF 12
REMARK  Name = ../refined-set-2016/4ewn/4ewn_pocket.pdb
REMARK  196 active torsions:
REMARK  status: ('A' for Active; 'I' for Inactive)
REMARK    1  A    between atoms: _1  and  _3
REMARK    2  A    between atoms: _3  and  _4
REMARK    3  A    between atoms: _3  and  _6
REMARK    4  A    between atoms: _6  and  _7
REMARK    5  A    between atoms: _10  and  _12
REMARK    6  A    between atoms: _12  and  _13
REMARK    7  A    between atoms: _16  and  _18
REMARK    8  A    between atoms: _18  and  _19
REMARK    9  A    between atoms: _18  and  _21
REMARK   10  A    between atoms: _23  and  _25
REMARK   11  A    between atoms: _25  and  _26
REMARK   12  A    between atoms: _25  and  _28
REMARK   13  A    between atoms: _28  and  _29
REMARK   14  A    between atoms: _32  and  _34
REMARK   15  A    between atoms: _34  and  _35
REMARK   16  A    between atoms: _34  and  _37
REMARK   17  A    between atoms: _37  and  _38
REMARK   18  A    between atoms: _41  and  _43
REMARK   19  A    between atoms: _43  and  _44
REMARK   20  A    between atoms: _43  and  _46
REMARK   21  A    between atoms: _49  and  _51
REMARK   22  A    between atoms: _51  and  _52
REMARK   23  A    between atoms: _51  and  _54
REMARK   24  A    between atoms: _54  and  _55
REMARK   25  A    between atoms: _58  and  _60
REMARK   26  A    between atoms: _60  and  _61
REMARK   27  A    between atoms: _60  and  _63
REMARK   28  A    between atoms: _63  and  _64
REMARK   29  A    between atoms: _67  and  _69
REMARK   30  A    between atoms: _69  and  _70
REMARK   31  A    between atoms: _69  and  _72
REMARK   32  A    between atoms: _72  and  _73
REMARK   33  A    between atoms: _76  and  _78
REMARK   34  A    between atoms: _78  and  _79
REMARK   35  A    between atoms: _81  and  _83
REMARK   36  A    between atoms: _83  and  _84
REMARK   37  A    between atoms: _86  and  _88
REMARK   38  A    between atoms: _88  and  _89
REMARK   39  A    between atoms: _91  and  _93
REMARK   40  A    between atoms: _93  and  _94
REMARK   41  A    between atoms: _93  and  _96
REMARK   42  A    between atoms: _96  and  _97
REMARK   43  A    between atoms: _99  and  _101
REMARK   44  A    between atoms: _101  and  _102
REMARK   45  A    between atoms: _101  and  _104
REMARK   46  A    between atoms: _104  and  _105
REMARK   47  A    between atoms: _110  and  _112
REMARK   48  A    between atoms: _112  and  _113
REMARK   49  A    between atoms: _112  and  _115
REMARK   50  A    between atoms: _115  and  _116
REMARK   51  A    between atoms: _119  and  _121
REMARK   52  A    between atoms: _121  and  _122
REMARK   53  A    between atoms: _125  and  _127
REMARK   54  A    between atoms: _127  and  _128
REMARK   55  A    between atoms: _127  and  _130
REMARK   56  A    between atoms: _130  and  _131
REMARK   57  A    between atoms: _134  and  _136
REMARK   58  A    between atoms: _136  and  _137
REMARK   59  A    between atoms: _136  and  _139
REMARK   60  A    between atoms: _142  and  _144
REMARK   61  A    between atoms: _144  and  _145
REMARK   62  A    between atoms: _148  and  _150
REMARK   63  A    between atoms: _150  and  _151
REMARK   64  A    between atoms: _150  and  _153
REMARK   65  A    between atoms: _153  and  _154
REMARK   66  A    between atoms: _154  and  _155
REMARK   67  A    between atoms: _155  and  _156
REMARK   68  A    between atoms: _156  and  _157
REMARK   69  A    between atoms: _161  and  _163
REMARK   70  A    between atoms: _163  and  _164
REMARK   71  A    between atoms: _163  and  _166
REMARK   72  A    between atoms: _166  and  _167
REMARK   73  A    between atoms: _173  and  _175
REMARK   74  A    between atoms: _175  and  _176
REMARK   75  A    between atoms: _175  and  _178
REMARK   76  A    between atoms: _178  and  _179
REMARK   77  A    between atoms: _182  and  _184
REMARK   78  A    between atoms: _184  and  _185
REMARK   79  A    between atoms: _184  and  _187
REMARK   80  A    between atoms: _187  and  _188
REMARK   81  A    between atoms: _193  and  _194
REMARK   82  A    between atoms: _196  and  _198
REMARK   83  A    between atoms: _198  and  _199
REMARK   84  A    between atoms: _198  and  _201
REMARK   85  A    between atoms: _201  and  _202
REMARK   86  A    between atoms: _204  and  _206
REMARK   87  A    between atoms: _206  and  _207
REMARK   88  A    between atoms: _209  and  _211
REMARK   89  A    between atoms: _211  and  _212
REMARK   90  A    between atoms: _211  and  _214
REMARK   91  A    between atoms: _214  and  _215
REMARK   92  A    between atoms: _215  and  _216
REMARK   93  A    between atoms: _216  and  _217
REMARK   94  A    between atoms: _217  and  _218
REMARK   95  A    between atoms: _222  and  _224
REMARK   96  A    between atoms: _224  and  _225
REMARK   97  A    between atoms: _224  and  _227
REMARK   98  A    between atoms: _227  and  _228
REMARK   99  A    between atoms: _231  and  _233
REMARK  100  A    between atoms: _233  and  _234
REMARK  101  A    between atoms: _233  and  _236
REMARK  102  A    between atoms: _236  and  _237
REMARK  103  A    between atoms: _240  and  _242
REMARK  104  A    between atoms: _242  and  _243
REMARK  105  A    between atoms: _242  and  _245
REMARK  106  A    between atoms: _245  and  _246
REMARK  107  A    between atoms: _249  and  _251
REMARK  108  A    between atoms: _251  and  _252
REMARK  109  A    between atoms: _251  and  _254
REMARK  110  A    between atoms: _254  and  _255
REMARK  111  A    between atoms: _257  and  _259
REMARK  112  A    between atoms: _259  and  _260
REMARK  113  A    between atoms: _259  and  _262
REMARK  114  A    between atoms: _262  and  _263
REMARK  115  A    between atoms: _266  and  _268
REMARK  116  A    between atoms: _268  and  _269
REMARK  117  A    between atoms: _268  and  _271
REMARK  118  A    between atoms: _271  and  _272
REMARK  119  A    between atoms: _275  and  _277
REMARK  120  A    between atoms: _277  and  _278
REMARK  121  A    between atoms: _277  and  _280
REMARK  122  A    between atoms: _280  and  _281
REMARK  123  A    between atoms: _281  and  _282
REMARK  124  A    between atoms: _282  and  _283
REMARK  125  A    between atoms: _292  and  _294
REMARK  126  A    between atoms: _294  and  _295
REMARK  127  A    between atoms: _294  and  _297
REMARK  128  A    between atoms: _300  and  _302
REMARK  129  A    between atoms: _302  and  _303
REMARK  130  A    between atoms: _305  and  _307
REMARK  131  A    between atoms: _307  and  _308
REMARK  132  A    between atoms: _307  and  _310
REMARK  133  A    between atoms: _310  and  _311
REMARK  134  A    between atoms: _314  and  _316
REMARK  135  A    between atoms: _316  and  _317
REMARK  136  A    between atoms: _316  and  _319
REMARK  137  A    between atoms: _319  and  _320
REMARK  138  A    between atoms: _320  and  _321
REMARK  139  A    between atoms: _321  and  _322
REMARK  140  A    between atoms: _322  and  _323
REMARK  141  A    between atoms: _327  and  _329
REMARK  142  A    between atoms: _329  and  _330
REMARK  143  A    between atoms: _329  and  _332
REMARK  144  A    between atoms: _332  and  _333
REMARK  145  A    between atoms: _335  and  _337
REMARK  146  A    between atoms: _337  and  _338
REMARK  147  A    between atoms: _340  and  _342
REMARK  148  A    between atoms: _342  and  _343
REMARK  149  A    between atoms: _342  and  _345
REMARK  150  A    between atoms: _345  and  _346
REMARK  151  A    between atoms: _351  and  _352
REMARK  152  A    between atoms: _354  and  _356
REMARK  153  A    between atoms: _356  and  _357
REMARK  154  A    between atoms: _360  and  _362
REMARK  155  A    between atoms: _362  and  _363
REMARK  156  A    between atoms: _362  and  _365
REMARK  157  A    between atoms: _365  and  _366
REMARK  158  A    between atoms: _368  and  _370
REMARK  159  A    between atoms: _370  and  _371
REMARK  160  A    between atoms: _373  and  _375
REMARK  161  A    between atoms: _375  and  _376
REMARK  162  A    between atoms: _378  and  _380
REMARK  163  A    between atoms: _380  and  _381
REMARK  164  A    between atoms: _384  and  _386
REMARK  165  A    between atoms: _386  and  _387
REMARK  166  A    between atoms: _389  and  _391
REMARK  167  A    between atoms: _391  and  _392
REMARK  168  A    between atoms: _391  and  _394
REMARK  169  A    between atoms: _394  and  _395
REMARK  170  A    between atoms: _401  and  _403
REMARK  171  A    between atoms: _403  and  _404
REMARK  172  A    between atoms: _403  and  _406
REMARK  173  A    between atoms: _406  and  _407
REMARK  174  A    between atoms: _410  and  _412
REMARK  175  A    between atoms: _412  and  _413
REMARK  176  A    between atoms: _416  and  _418
REMARK  177  A    between atoms: _418  and  _419
REMARK  178  A    between atoms: _422  and  _424
REMARK  179  A    between atoms: _424  and  _425
REMARK  180  A    between atoms: _424  and  _427
REMARK  181  A    between atoms: _427  and  _428
REMARK  182  A    between atoms: _430  and  _432
REMARK  183  A    between atoms: _432  and  _433
REMARK  184  A    between atoms: _432  and  _435
REMARK  185  A    between atoms: _438  and  _440
REMARK  186  A    between atoms: _440  and  _441
REMARK  187  A    between atoms: _440  and  _443
REMARK  188  A    between atoms: _443  and  _444
REMARK  189  A    between atoms: _450  and  _452
REMARK  190  A    between atoms: _452  and  _453
REMARK  191  A    between atoms: _452  and  _455
REMARK  192  A    between atoms: _455  and  _456
REMARK  193  A    between atoms: _461  and  _463
REMARK  194  A    between atoms: _463  and  _464
REMARK  195  A    between atoms: _463  and  _466
REMARK  196  A    between atoms: _466  and  _467
REMARK                            x       y       z     vdW  Elec       q    Type
REMARK                         _______ _______ _______ _____ _____    ______ ____
ROOT
ATOM      1  CA  GLY A   2      12.459  19.885  11.388  0.00  0.00    +0.176 C 
ENDROOT
BRANCH   1   3
ATOM      2  C   GLY A   1      12.319  17.462  11.476  0.00  0.00    +0.240 C 
ATOM      3  N   GLY A   2      11.774  18.649  11.721  0.00  0.00    -0.295 N 
ATOM      4  H   GLY A   2      10.833  18.694  12.162  0.00  0.00    +0.150 HD
ATOM      5  O   GLY A   1      13.420  17.325  10.937  0.00  0.00    -0.274 OA
BRANCH   2   6
ATOM      6  CA  GLY A   1      11.510  16.254  11.892  0.00  0.00    +0.169 C 
BRANCH   6   7
ATOM      7  N   GLY A   1      12.173  15.016  11.502  0.00  0.00    -0.236 NA
ATOM      8  H   GLY A   1      13.212  14.974  11.513  0.00  0.00    +0.142 HD
ENDBRANCH   6   7
ENDBRANCH   2   6
ENDBRANCH   1   3
BRANCH   1   9
ATOM      9  C   GLY A   2      11.885  20.512  10.135  0.00  0.00    +0.243 C 
ATOM     10  N   GLY A   3      11.016  21.501  10.318  0.00  0.00    -0.296 N 
ATOM     11  H   GLY A   3      10.746  21.769  11.286  0.00  0.00    +0.150 HD
ATOM     12  O   GLY A   2      12.202  20.094   9.018  0.00  0.00    -0.273 OA
BRANCH  10  13
ATOM     13  CA  GLY A   3      10.437  22.214   9.195  0.00  0.00    +0.163 C 
BRANCH  13  14
ATOM     14  C   GLY A   3       9.670  21.392   8.165  0.00  0.00    +0.229 C 
ATOM     15  O   GLY A   3       9.781  21.633   6.959  0.00  0.00    -0.286 OA
ENDBRANCH  13  14
ENDBRANCH  10  13
ENDBRANCH   1   9
TORSDOF 6
REMARK  Name = ../refined-set-2016/4ewn/4ewn_pocket.pdb
REMARK  196 active torsions:
REMARK  status: ('A' for Active; 'I' for Inactive)
REMARK    1  A    between atoms: _1  and  _3
REMARK    2  A    between atoms: _3  and  _4
REMARK    3  A    between atoms: _3  and  _6
REMARK    4  A    between atoms: _6  and  _7
REMARK    5  A    between atoms: _10  and  _12
REMARK    6  A    between atoms: _12  and  _13
REMARK    7  A    between atoms: _16  and  _18
REMARK    8  A    between atoms: _18  and  _19
REMARK    9  A    between atoms: _18  and  _21
REMARK   10  A    between atoms: _23  and  _25
REMARK   11  A    between atoms: _25  and  _26
REMARK   12  A    between atoms: _25  and  _28
REMARK   13  A    between atoms: _28  and  _29
REMARK   14  A    between atoms: _32  and  _34
REMARK   15  A    between atoms: _34  and  _35
REMARK   16  A    between atoms: _34  and  _37
REMARK   17  A    between atoms: _37  and  _38
REMARK   18  A    between atoms: _41  and  _43
REMARK   19  A    between atoms: _43  and  _44
REMARK   20  A    between atoms: _43  and  _46
REMARK   21  A    between atoms: _49  and  _51
REMARK   22  A    between atoms: _51  and  _52
REMARK   23  A    between atoms: _51  and  _54
REMARK   24  A    between atoms: _54  and  _55
REMARK   25  A    between atoms: _58  and  _60
REMARK   26  A    between atoms: _60  and  _61
REMARK   27  A    between atoms: _60  and  _63
REMARK   28  A    between atoms: _63  and  _64
REMARK   29  A    between atoms: _67  and  _69
REMARK   30  A    between atoms: _69  and  _70
REMARK   31  A    between atoms: _69  and  _72
REMARK   32  A    between atoms: _72  and  _73
REMARK   33  A    between atoms: _76  and  _78
REMARK   34  A    between atoms: _78  and  _79
REMARK   35  A    between atoms: _81  and  _83
REMARK   36  A    between atoms: _83  and  _84
REMARK   37  A    between atoms: _86  and  _88
REMARK   38  A    between atoms: _88  and  _89
REMARK   39  A    between atoms: _91  and  _93
REMARK   40  A    between atoms: _93  and  _94
REMARK   41  A    between atoms: _93  and  _96
REMARK   42  A    between atoms: _96  and  _97
REMARK   43  A    between atoms: _99  and  _101
REMARK   44  A    between atoms: _101  and  _102
REMARK   45  A    between atoms: _101  and  _104
REMARK   46  A    between atoms: _104  and  _105
REMARK   47  A    between atoms: _110  and  _112
REMARK   48  A    between atoms: _112  and  _113
REMARK   49  A    between atoms: _112  and  _115
REMARK   50  A    between atoms: _115  and  _116
REMARK   51  A    between atoms: _119  and  _121
REMARK   52  A    between atoms: _121  and  _122
REMARK   53  A    between atoms: _125  and  _127
REMARK   54  A    between atoms: _127  and  _128
REMARK   55  A    between atoms: _127  and  _130
REMARK   56  A    between atoms: _130  and  _131
REMARK   57  A    between atoms: _134  and  _136
REMARK   58  A    between atoms: _136  and  _137
REMARK   59  A    between atoms: _136  and  _139
REMARK   60  A    between atoms: _142  and  _144
REMARK   61  A    between atoms: _144  and  _145
REMARK   62  A    between atoms: _148  and  _150
REMARK   63  A    between atoms: _150  and  _151
REMARK   64  A    between atoms: _150  and  _153
REMARK   65  A    between atoms: _153  and  _154
REMARK   66  A    between atoms: _154  and  _155
REMARK   67  A    between atoms: _155  and  _156
REMARK   68  A    between atoms: _156  and  _157
REMARK   69  A    between atoms: _161  and  _163
REMARK   70  A    between atoms: _163  and  _164
REMARK   71  A    between atoms: _163  and  _166
REMARK   72  A    between atoms: _166  and  _167
REMARK   73  A    between atoms: _173  and  _175
REMARK   74  A    between atoms: _175  and  _176
REMARK   75  A    between atoms: _175  and  _178
REMARK   76  A    between atoms: _178  and  _179
REMARK   77  A    between atoms: _182  and  _184
REMARK   78  A    between atoms: _184  and  _185
REMARK   79  A    between atoms: _184  and  _187
REMARK   80  A    between atoms: _187  and  _188
REMARK   81  A    between atoms: _193  and  _194
REMARK   82  A    between atoms: _196  and  _198
REMARK   83  A    between atoms: _198  and  _199
REMARK   84  A    between atoms: _198  and  _201
REMARK   85  A    between atoms: _201  and  _202
REMARK   86  A    between atoms: _204  and  _206
REMARK   87  A    between atoms: _206  and  _207
REMARK   88  A    between atoms: _209  and  _211
REMARK   89  A    between atoms: _211  and  _212
REMARK   90  A    between atoms: _211  and  _214
REMARK   91  A    between atoms: _214  and  _215
REMARK   92  A    between atoms: _215  and  _216
REMARK   93  A    between atoms: _216  and  _217
REMARK   94  A    between atoms: _217  and  _218
REMARK   95  A    between atoms: _222  and  _224
REMARK   96  A    between atoms: _224  and  _225
REMARK   97  A    between atoms: _224  and  _227
REMARK   98  A    between atoms: _227  and  _228
REMARK   99  A    between atoms: _231  and  _233
REMARK  100  A    between atoms: _233  and  _234
REMARK  101  A    between atoms: _233  and  _236
REMARK  102  A    between atoms: _236  and  _237
REMARK  103  A    between atoms: _240  and  _242
REMARK  104  A    between atoms: _242  and  _243
REMARK  105  A    between atoms: _242  and  _245
REMARK  106  A    between atoms: _245  and  _246
REMARK  107  A    between atoms: _249  and  _251
REMARK  108  A    between atoms: _251  and  _252
REMARK  109  A    between atoms: _251  and  _254
REMARK  110  A    between atoms: _254  and  _255
REMARK  111  A    between atoms: _257  and  _259
REMARK  112  A    between atoms: _259  and  _260
REMARK  113  A    between atoms: _259  and  _262
REMARK  114  A    between atoms: _262  and  _263
REMARK  115  A    between atoms: _266  and  _268
REMARK  116  A    between atoms: _268  and  _269
REMARK  117  A    between atoms: _268  and  _271
REMARK  118  A    between atoms: _271  and  _272
REMARK  119  A    between atoms: _275  and  _277
REMARK  120  A    between atoms: _277  and  _278
REMARK  121  A    between atoms: _277  and  _280
REMARK  122  A    between atoms: _280  and  _281
REMARK  123  A    between atoms: _281  and  _282
REMARK  124  A    between atoms: _282  and  _283
REMARK  125  A    between atoms: _292  and  _294
REMARK  126  A    between atoms: _294  and  _295
REMARK  127  A    between atoms: _294  and  _297
REMARK  128  A    between atoms: _300  and  _302
REMARK  129  A    between atoms: _302  and  _303
REMARK  130  A    between atoms: _305  and  _307
REMARK  131  A    between atoms: _307  and  _308
REMARK  132  A    between atoms: _307  and  _310
REMARK  133  A    between atoms: _310  and  _311
REMARK  134  A    between atoms: _314  and  _316
REMARK  135  A    between atoms: _316  and  _317
REMARK  136  A    between atoms: _316  and  _319
REMARK  137  A    between atoms: _319  and  _320
REMARK  138  A    between atoms: _320  and  _321
REMARK  139  A    between atoms: _321  and  _322
REMARK  140  A    between atoms: _322  and  _323
REMARK  141  A    between atoms: _327  and  _329
REMARK  142  A    between atoms: _329  and  _330
REMARK  143  A    between atoms: _329  and  _332
REMARK  144  A    between atoms: _332  and  _333
REMARK  145  A    between atoms: _335  and  _337
REMARK  146  A    between atoms: _337  and  _338
REMARK  147  A    between atoms: _340  and  _342
REMARK  148  A    between atoms: _342  and  _343
REMARK  149  A    between atoms: _342  and  _345
REMARK  150  A    between atoms: _345  and  _346
REMARK  151  A    between atoms: _351  and  _352
REMARK  152  A    between atoms: _354  and  _356
REMARK  153  A    between atoms: _356  and  _357
REMARK  154  A    between atoms: _360  and  _362
REMARK  155  A    between atoms: _362  and  _363
REMARK  156  A    between atoms: _362  and  _365
REMARK  157  A    between atoms: _365  and  _366
REMARK  158  A    between atoms: _368  and  _370
REMARK  159  A    between atoms: _370  and  _371
REMARK  160  A    between atoms: _373  and  _375
REMARK  161  A    between atoms: _375  and  _376
REMARK  162  A    between atoms: _378  and  _380
REMARK  163  A    between atoms: _380  and  _381
REMARK  164  A    between atoms: _384  and  _386
REMARK  165  A    between atoms: _386  and  _387
REMARK  166  A    between atoms: _389  and  _391
REMARK  167  A    between atoms: _391  and  _392
REMARK  168  A    between atoms: _391  and  _394
REMARK  169  A    between atoms: _394  and  _395
REMARK  170  A    between atoms: _401  and  _403
REMARK  171  A    between atoms: _403  and  _404
REMARK  172  A    between atoms: _403  and  _406
REMARK  173  A    between atoms: _406  and  _407
REMARK  174  A    between atoms: _410  and  _412
REMARK  175  A    between atoms: _412  and  _413
REMARK  176  A    between atoms: _416  and  _418
REMARK  177  A    between atoms: _418  and  _419
REMARK  178  A    between atoms: _422  and  _424
REMARK  179  A    between atoms: _424  and  _425
REMARK  180  A    between atoms: _424  and  _427
REMARK  181  A    between atoms: _427  and  _428
REMARK  182  A    between atoms: _430  and  _432
REMARK  183  A    between atoms: _432  and  _433
REMARK  184  A    between atoms: _432  and  _435
REMARK  185  A    between atoms: _438  and  _440
REMARK  186  A    between atoms: _440  and  _441
REMARK  187  A    between atoms: _440  and  _443
REMARK  188  A    between atoms: _443  and  _444
REMARK  189  A    between atoms: _450  and  _452
REMARK  190  A    between atoms: _452  and  _453
REMARK  191  A    between atoms: _452  and  _455
REMARK  192  A    between atoms: _455  and  _456
REMARK  193  A    between atoms: _461  and  _463
REMARK  194  A    between atoms: _463  and  _464
REMARK  195  A    between atoms: _463  and  _466
REMARK  196  A    between atoms: _466  and  _467
REMARK                            x       y       z     vdW  Elec       q    Type
REMARK                         _______ _______ _______ _____ _____    ______ ____
ROOT
ATOM      1  CA  SER A   1       7.382  14.890  13.546  0.00  0.00    +0.163 C 
ENDROOT
BRANCH   1   2
ATOM      2  N   SER A   1       7.702  14.005  12.444  0.00  0.00    -0.237 NA
ATOM      3  H   SER A   1       8.602  14.142  11.941  0.00  0.00    +0.142 HD
ENDBRANCH   1   2
BRANCH   1   4
ATOM      4  CB  SER A   1       6.992  16.247  12.961  0.00  0.00    +0.227 C 
ATOM      5  OG  SER A   1       7.710  16.798  12.112  0.00  0.00    -0.287 OA
ENDBRANCH   1   4
BRANCH   1   6
ATOM      6  C   SER A   1       8.608  15.037  14.461  0.00  0.00    +0.162 C 
BRANCH   6   7
ATOM      7  O   SER A   1       8.351  15.938  15.525  0.00  0.00    -0.380 OA
ATOM      8  H   SER A   1       8.125  16.828  15.155  0.00  0.00    +0.211 HD
ENDBRANCH   6   7
ENDBRANCH   1   6
TORSDOF 4
REMARK  Name = ../refined-set-2016/4ewn/4ewn_pocket.pdb
REMARK  196 active torsions:
REMARK  status: ('A' for Active; 'I' for Inactive)
REMARK    1  A    between atoms: _1  and  _3
REMARK    2  A    between atoms: _3  and  _4
REMARK    3  A    between atoms: _3  and  _6
REMARK    4  A    between atoms: _6  and  _7
REMARK    5  A    between atoms: _10  and  _12
REMARK    6  A    between atoms: _12  and  _13
REMARK    7  A    between atoms: _16  and  _18
REMARK    8  A    between atoms: _18  and  _19
REMARK    9  A    between atoms: _18  and  _21
REMARK   10  A    between atoms: _23  and  _25
REMARK   11  A    between atoms: _25  and  _26
REMARK   12  A    between atoms: _25  and  _28
REMARK   13  A    between atoms: _28  and  _29
REMARK   14  A    between atoms: _32  and  _34
REMARK   15  A    between atoms: _34  and  _35
REMARK   16  A    between atoms: _34  and  _37
REMARK   17  A    between atoms: _37  and  _38
REMARK   18  A    between atoms: _41  and  _43
REMARK   19  A    between atoms: _43  and  _44
REMARK   20  A    between atoms: _43  and  _46
REMARK   21  A    between atoms: _49  and  _51
REMARK   22  A    between atoms: _51  and  _52
REMARK   23  A    between atoms: _51  and  _54
REMARK   24  A    between atoms: _54  and  _55
REMARK   25  A    between atoms: _58  and  _60
REMARK   26  A    between atoms: _60  and  _61
REMARK   27  A    between atoms: _60  and  _63
REMARK   28  A    between atoms: _63  and  _64
REMARK   29  A    between atoms: _67  and  _69
REMARK   30  A    between atoms: _69  and  _70
REMARK   31  A    between atoms: _69  and  _72
REMARK   32  A    between atoms: _72  and  _73
REMARK   33  A    between atoms: _76  and  _78
REMARK   34  A    between atoms: _78  and  _79
REMARK   35  A    between atoms: _81  and  _83
REMARK   36  A    between atoms: _83  and  _84
REMARK   37  A    between atoms: _86  and  _88
REMARK   38  A    between atoms: _88  and  _89
REMARK   39  A    between atoms: _91  and  _93
REMARK   40  A    between atoms: _93  and  _94
REMARK   41  A    between atoms: _93  and  _96
REMARK   42  A    between atoms: _96  and  _97
REMARK   43  A    between atoms: _99  and  _101
REMARK   44  A    between atoms: _101  and  _102
REMARK   45  A    between atoms: _101  and  _104
REMARK   46  A    between atoms: _104  and  _105
REMARK   47  A    between atoms: _110  and  _112
REMARK   48  A    between atoms: _112  and  _113
REMARK   49  A    between atoms: _112  and  _115
REMARK   50  A    between atoms: _115  and  _116
REMARK   51  A    between atoms: _119  and  _121
REMARK   52  A    between atoms: _121  and  _122
REMARK   53  A    between atoms: _125  and  _127
REMARK   54  A    between atoms: _127  and  _128
REMARK   55  A    between atoms: _127  and  _130
REMARK   56  A    between atoms: _130  and  _131
REMARK   57  A    between atoms: _134  and  _136
REMARK   58  A    between atoms: _136  and  _137
REMARK   59  A    between atoms: _136  and  _139
REMARK   60  A    between atoms: _142  and  _144
REMARK   61  A    between atoms: _144  and  _145
REMARK   62  A    between atoms: _148  and  _150
REMARK   63  A    between atoms: _150  and  _151
REMARK   64  A    between atoms: _150  and  _153
REMARK   65  A    between atoms: _153  and  _154
REMARK   66  A    between atoms: _154  and  _155
REMARK   67  A    between atoms: _155  and  _156
REMARK   68  A    between atoms: _156  and  _157
REMARK   69  A    between atoms: _161  and  _163
REMARK   70  A    between atoms: _163  and  _164
REMARK   71  A    between atoms: _163  and  _166
REMARK   72  A    between atoms: _166  and  _167
REMARK   73  A    between atoms: _173  and  _175
REMARK   74  A    between atoms: _175  and  _176
REMARK   75  A    between atoms: _175  and  _178
REMARK   76  A    between atoms: _178  and  _179
REMARK   77  A    between atoms: _182  and  _184
REMARK   78  A    between atoms: _184  and  _185
REMARK   79  A    between atoms: _184  and  _187
REMARK   80  A    between atoms: _187  and  _188
REMARK   81  A    between atoms: _193  and  _194
REMARK   82  A    between atoms: _196  and  _198
REMARK   83  A    between atoms: _198  and  _199
REMARK   84  A    between atoms: _198  and  _201
REMARK   85  A    between atoms: _201  and  _202
REMARK   86  A    between atoms: _204  and  _206
REMARK   87  A    between atoms: _206  and  _207
REMARK   88  A    between atoms: _209  and  _211
REMARK   89  A    between atoms: _211  and  _212
REMARK   90  A    between atoms: _211  and  _214
REMARK   91  A    between atoms: _214  and  _215
REMARK   92  A    between atoms: _215  and  _216
REMARK   93  A    between atoms: _216  and  _217
REMARK   94  A    between atoms: _217  and  _218
REMARK   95  A    between atoms: _222  and  _224
REMARK   96  A    between atoms: _224  and  _225
REMARK   97  A    between atoms: _224  and  _227
REMARK   98  A    between atoms: _227  and  _228
REMARK   99  A    between atoms: _231  and  _233
REMARK  100  A    between atoms: _233  and  _234
REMARK  101  A    between atoms: _233  and  _236
REMARK  102  A    between atoms: _236  and  _237
REMARK  103  A    between atoms: _240  and  _242
REMARK  104  A    between atoms: _242  and  _243
REMARK  105  A    between atoms: _242  and  _245
REMARK  106  A    between atoms: _245  and  _246
REMARK  107  A    between atoms: _249  and  _251
REMARK  108  A    between atoms: _251  and  _252
REMARK  109  A    between atoms: _251  and  _254
REMARK  110  A    between atoms: _254  and  _255
REMARK  111  A    between atoms: _257  and  _259
REMARK  112  A    between atoms: _259  and  _260
REMARK  113  A    between atoms: _259  and  _262
REMARK  114  A    between atoms: _262  and  _263
REMARK  115  A    between atoms: _266  and  _268
REMARK  116  A    between atoms: _268  and  _269
REMARK  117  A    between atoms: _268  and  _271
REMARK  118  A    between atoms: _271  and  _272
REMARK  119  A    between atoms: _275  and  _277
REMARK  120  A    between atoms: _277  and  _278
REMARK  121  A    between atoms: _277  and  _280
REMARK  122  A    between atoms: _280  and  _281
REMARK  123  A    between atoms: _281  and  _282
REMARK  124  A    between atoms: _282  and  _283
REMARK  125  A    between atoms: _292  and  _294
REMARK  126  A    between atoms: _294  and  _295
REMARK  127  A    between atoms: _294  and  _297
REMARK  128  A    between atoms: _300  and  _302
REMARK  129  A    between atoms: _302  and  _303
REMARK  130  A    between atoms: _305  and  _307
REMARK  131  A    between atoms: _307  and  _308
REMARK  132  A    between atoms: _307  and  _310
REMARK  133  A    between atoms: _310  and  _311
REMARK  134  A    between atoms: _314  and  _316
REMARK  135  A    between atoms: _316  and  _317
REMARK  136  A    between atoms: _316  and  _319
REMARK  137  A    between atoms: _319  and  _320
REMARK  138  A    between atoms: _320  and  _321
REMARK  139  A    between atoms: _321  and  _322
REMARK  140  A    between atoms: _322  and  _323
REMARK  141  A    between atoms: _327  and  _329
REMARK  142  A    between atoms: _329  and  _330
REMARK  143  A    between atoms: _329  and  _332
REMARK  144  A    between atoms: _332  and  _333
REMARK  145  A    between atoms: _335  and  _337
REMARK  146  A    between atoms: _337  and  _338
REMARK  147  A    between atoms: _340  and  _342
REMARK  148  A    between atoms: _342  and  _343
REMARK  149  A    between atoms: _342  and  _345
REMARK  150  A    between atoms: _345  and  _346
REMARK  151  A    between atoms: _351  and  _352
REMARK  152  A    between atoms: _354  and  _356
REMARK  153  A    between atoms: _356  and  _357
REMARK  154  A    between atoms: _360  and  _362
REMARK  155  A    between atoms: _362  and  _363
REMARK  156  A    between atoms: _362  and  _365
REMARK  157  A    between atoms: _365  and  _366
REMARK  158  A    between atoms: _368  and  _370
REMARK  159  A    between atoms: _370  and  _371
REMARK  160  A    between atoms: _373  and  _375
REMARK  161  A    between atoms: _375  and  _376
REMARK  162  A    between atoms: _378  and  _380
REMARK  163  A    between atoms: _380  and  _381
REMARK  164  A    between atoms: _384  and  _386
REMARK  165  A    between atoms: _386  and  _387
REMARK  166  A    between atoms: _389  and  _391
REMARK  167  A    between atoms: _391  and  _392
REMARK  168  A    between atoms: _391  and  _394
REMARK  169  A    between atoms: _394  and  _395
REMARK  170  A    between atoms: _401  and  _403
REMARK  171  A    between atoms: _403  and  _404
REMARK  172  A    between atoms: _403  and  _406
REMARK  173  A    between atoms: _406  and  _407
REMARK  174  A    between atoms: _410  and  _412
REMARK  175  A    between atoms: _412  and  _413
REMARK  176  A    between atoms: _416  and  _418
REMARK  177  A    between atoms: _418  and  _419
REMARK  178  A    between atoms: _422  and  _424
REMARK  179  A    between atoms: _424  and  _425
REMARK  180  A    between atoms: _424  and  _427
REMARK  181  A    between atoms: _427  and  _428
REMARK  182  A    between atoms: _430  and  _432
REMARK  183  A    between atoms: _432  and  _433
REMARK  184  A    between atoms: _432  and  _435
REMARK  185  A    between atoms: _438  and  _440
REMARK  186  A    between atoms: _440  and  _441
REMARK  187  A    between atoms: _440  and  _443
REMARK  188  A    between atoms: _443  and  _444
REMARK  189  A    between atoms: _450  and  _452
REMARK  190  A    between atoms: _452  and  _453
REMARK  191  A    between atoms: _452  and  _455
REMARK  192  A    between atoms: _455  and  _456
REMARK  193  A    between atoms: _461  and  _463
REMARK  194  A    between atoms: _463  and  _464
REMARK  195  A    between atoms: _463  and  _466
REMARK  196  A    between atoms: _466  and  _467
REMARK                            x       y       z     vdW  Elec       q    Type
REMARK                         _______ _______ _______ _____ _____    ______ ____
ROOT
ATOM      1  C   ASN A   1       4.253  22.358  14.839  0.00  0.00    +0.239 C 
ATOM      2  O   ASN A   1       3.027  22.410  14.874  0.00  0.00    -0.274 OA
ATOM      3  N   THR A   2       5.010  23.359  14.394  0.00  0.00    -0.296 N 
ATOM      4  H   THR A   2       6.044  23.245  14.383  0.00  0.00    +0.150 HD
ENDROOT
BRANCH   1   5
ATOM      5  CA  ASN A   1       4.983  21.104  15.301  0.00  0.00    +0.154 C 
BRANCH   5   6
ATOM      6  N   ASN A   1       5.262  20.235  14.162  0.00  0.00    -0.238 NA
ATOM      7  H   ASN A   1       5.589  20.653  13.267  0.00  0.00    +0.142 HD
ENDBRANCH   5   6
BRANCH   5   8
ATOM      8  CB  ASN A   1       6.285  21.458  16.040  0.00  0.00    +0.111 C 
BRANCH   8   9
ATOM      9  CG  ASN A   1       6.050  22.293  17.303  0.00  0.00    +0.221 C 
ATOM     10  ND2 ASN A   1       7.083  22.386  18.129  0.00  0.00    -0.329 N 
ATOM     11 HD21 ASN A   1       7.000  22.940  19.005  0.00  0.00    +0.145 HD
ATOM     12 HD22 ASN A   1       7.976  21.905  17.901  0.00  0.00    +0.145 HD
ATOM     13  OD1 ASN A   1       4.958  22.850  17.530  0.00  0.00    -0.275 OA
ENDBRANCH   8   9
ENDBRANCH   5   8
ENDBRANCH   1   5
BRANCH   3  14
ATOM     14  CA  THR A   2       4.426  24.618  13.919  0.00  0.00    +0.164 C 
BRANCH  14  15
ATOM     15  CB  THR A   2       5.523  25.588  13.417  0.00  0.00    +0.136 C 
ATOM     16  CG2 THR A   2       4.895  26.847  12.768  0.00  0.00    +0.034 C 
BRANCH  15  17
ATOM     17  OG1 THR A   2       6.347  25.971  14.530  0.00  0.00    -0.382 OA
ATOM     18  HG1 THR A   2       7.052  26.592  14.219  0.00  0.00    +0.210 HD
ENDBRANCH  15  17
ENDBRANCH  14  15
BRANCH  14  19
ATOM     19  C   THR A   2       3.345  24.406  12.852  0.00  0.00    +0.229 C 
ATOM     20  O   THR A   2       2.305  25.062  12.872  0.00  0.00    -0.286 OA
ENDBRANCH  14  19
ENDBRANCH   3  14
TORSDOF 8
REMARK  Name = ../refined-set-2016/4ewn/4ewn_pocket.pdb
REMARK  196 active torsions:
REMARK  status: ('A' for Active; 'I' for Inactive)
REMARK    1  A    between atoms: _1  and  _3
REMARK    2  A    between atoms: _3  and  _4
REMARK    3  A    between atoms: _3  and  _6
REMARK    4  A    between atoms: _6  and  _7
REMARK    5  A    between atoms: _10  and  _12
REMARK    6  A    between atoms: _12  and  _13
REMARK    7  A    between atoms: _16  and  _18
REMARK    8  A    between atoms: _18  and  _19
REMARK    9  A    between atoms: _18  and  _21
REMARK   10  A    between atoms: _23  and  _25
REMARK   11  A    between atoms: _25  and  _26
REMARK   12  A    between atoms: _25  and  _28
REMARK   13  A    between atoms: _28  and  _29
REMARK   14  A    between atoms: _32  and  _34
REMARK   15  A    between atoms: _34  and  _35
REMARK   16  A    between atoms: _34  and  _37
REMARK   17  A    between atoms: _37  and  _38
REMARK   18  A    between atoms: _41  and  _43
REMARK   19  A    between atoms: _43  and  _44
REMARK   20  A    between atoms: _43  and  _46
REMARK   21  A    between atoms: _49  and  _51
REMARK   22  A    between atoms: _51  and  _52
REMARK   23  A    between atoms: _51  and  _54
REMARK   24  A    between atoms: _54  and  _55
REMARK   25  A    between atoms: _58  and  _60
REMARK   26  A    between atoms: _60  and  _61
REMARK   27  A    between atoms: _60  and  _63
REMARK   28  A    between atoms: _63  and  _64
REMARK   29  A    between atoms: _67  and  _69
REMARK   30  A    between atoms: _69  and  _70
REMARK   31  A    between atoms: _69  and  _72
REMARK   32  A    between atoms: _72  and  _73
REMARK   33  A    between atoms: _76  and  _78
REMARK   34  A    between atoms: _78  and  _79
REMARK   35  A    between atoms: _81  and  _83
REMARK   36  A    between atoms: _83  and  _84
REMARK   37  A    between atoms: _86  and  _88
REMARK   38  A    between atoms: _88  and  _89
REMARK   39  A    between atoms: _91  and  _93
REMARK   40  A    between atoms: _93  and  _94
REMARK   41  A    between atoms: _93  and  _96
REMARK   42  A    between atoms: _96  and  _97
REMARK   43  A    between atoms: _99  and  _101
REMARK   44  A    between atoms: _101  and  _102
REMARK   45  A    between atoms: _101  and  _104
REMARK   46  A    between atoms: _104  and  _105
REMARK   47  A    between atoms: _110  and  _112
REMARK   48  A    between atoms: _112  and  _113
REMARK   49  A    between atoms: _112  and  _115
REMARK   50  A    between atoms: _115  and  _116
REMARK   51  A    between atoms: _119  and  _121
REMARK   52  A    between atoms: _121  and  _122
REMARK   53  A    between atoms: _125  and  _127
REMARK   54  A    between atoms: _127  and  _128
REMARK   55  A    between atoms: _127  and  _130
REMARK   56  A    between atoms: _130  and  _131
REMARK   57  A    between atoms: _134  and  _136
REMARK   58  A    between atoms: _136  and  _137
REMARK   59  A    between atoms: _136  and  _139
REMARK   60  A    between atoms: _142  and  _144
REMARK   61  A    between atoms: _144  and  _145
REMARK   62  A    between atoms: _148  and  _150
REMARK   63  A    between atoms: _150  and  _151
REMARK   64  A    between atoms: _150  and  _153
REMARK   65  A    between atoms: _153  and  _154
REMARK   66  A    between atoms: _154  and  _155
REMARK   67  A    between atoms: _155  and  _156
REMARK   68  A    between atoms: _156  and  _157
REMARK   69  A    between atoms: _161  and  _163
REMARK   70  A    between atoms: _163  and  _164
REMARK   71  A    between atoms: _163  and  _166
REMARK   72  A    between atoms: _166  and  _167
REMARK   73  A    between atoms: _173  and  _175
REMARK   74  A    between atoms: _175  and  _176
REMARK   75  A    between atoms: _175  and  _178
REMARK   76  A    between atoms: _178  and  _179
REMARK   77  A    between atoms: _182  and  _184
REMARK   78  A    between atoms: _184  and  _185
REMARK   79  A    between atoms: _184  and  _187
REMARK   80  A    between atoms: _187  and  _188
REMARK   81  A    between atoms: _193  and  _194
REMARK   82  A    between atoms: _196  and  _198
REMARK   83  A    between atoms: _198  and  _199
REMARK   84  A    between atoms: _198  and  _201
REMARK   85  A    between atoms: _201  and  _202
REMARK   86  A    between atoms: _204  and  _206
REMARK   87  A    between atoms: _206  and  _207
REMARK   88  A    between atoms: _209  and  _211
REMARK   89  A    between atoms: _211  and  _212
REMARK   90  A    between atoms: _211  and  _214
REMARK   91  A    between atoms: _214  and  _215
REMARK   92  A    between atoms: _215  and  _216
REMARK   93  A    between atoms: _216  and  _217
REMARK   94  A    between atoms: _217  and  _218
REMARK   95  A    between atoms: _222  and  _224
REMARK   96  A    between atoms: _224  and  _225
REMARK   97  A    between atoms: _224  and  _227
REMARK   98  A    between atoms: _227  and  _228
REMARK   99  A    between atoms: _231  and  _233
REMARK  100  A    between atoms: _233  and  _234
REMARK  101  A    between atoms: _233  and  _236
REMARK  102  A    between atoms: _236  and  _237
REMARK  103  A    between atoms: _240  and  _242
REMARK  104  A    between atoms: _242  and  _243
REMARK  105  A    between atoms: _242  and  _245
REMARK  106  A    between atoms: _245  and  _246
REMARK  107  A    between atoms: _249  and  _251
REMARK  108  A    between atoms: _251  and  _252
REMARK  109  A    between atoms: _251  and  _254
REMARK  110  A    between atoms: _254  and  _255
REMARK  111  A    between atoms: _257  and  _259
REMARK  112  A    between atoms: _259  and  _260
REMARK  113  A    between atoms: _259  and  _262
REMARK  114  A    between atoms: _262  and  _263
REMARK  115  A    between atoms: _266  and  _268
REMARK  116  A    between atoms: _268  and  _269
REMARK  117  A    between atoms: _268  and  _271
REMARK  118  A    between atoms: _271  and  _272
REMARK  119  A    between atoms: _275  and  _277
REMARK  120  A    between atoms: _277  and  _278
REMARK  121  A    between atoms: _277  and  _280
REMARK  122  A    between atoms: _280  and  _281
REMARK  123  A    between atoms: _281  and  _282
REMARK  124  A    between atoms: _282  and  _283
REMARK  125  A    between atoms: _292  and  _294
REMARK  126  A    between atoms: _294  and  _295
REMARK  127  A    between atoms: _294  and  _297
REMARK  128  A    between atoms: _300  and  _302
REMARK  129  A    between atoms: _302  and  _303
REMARK  130  A    between atoms: _305  and  _307
REMARK  131  A    between atoms: _307  and  _308
REMARK  132  A    between atoms: _307  and  _310
REMARK  133  A    between atoms: _310  and  _311
REMARK  134  A    between atoms: _314  and  _316
REMARK  135  A    between atoms: _316  and  _317
REMARK  136  A    between atoms: _316  and  _319
REMARK  137  A    between atoms: _319  and  _320
REMARK  138  A    between atoms: _320  and  _321
REMARK  139  A    between atoms: _321  and  _322
REMARK  140  A    between atoms: _322  and  _323
REMARK  141  A    between atoms: _327  and  _329
REMARK  142  A    between atoms: _329  and  _330
REMARK  143  A    between atoms: _329  and  _332
REMARK  144  A    between atoms: _332  and  _333
REMARK  145  A    between atoms: _335  and  _337
REMARK  146  A    between atoms: _337  and  _338
REMARK  147  A    between atoms: _340  and  _342
REMARK  148  A    between atoms: _342  and  _343
REMARK  149  A    between atoms: _342  and  _345
REMARK  150  A    between atoms: _345  and  _346
REMARK  151  A    between atoms: _351  and  _352
REMARK  152  A    between atoms: _354  and  _356
REMARK  153  A    between atoms: _356  and  _357
REMARK  154  A    between atoms: _360  and  _362
REMARK  155  A    between atoms: _362  and  _363
REMARK  156  A    between atoms: _362  and  _365
REMARK  157  A    between atoms: _365  and  _366
REMARK  158  A    between atoms: _368  and  _370
REMARK  159  A    between atoms: _370  and  _371
REMARK  160  A    between atoms: _373  and  _375
REMARK  161  A    between atoms: _375  and  _376
REMARK  162  A    between atoms: _378  and  _380
REMARK  163  A    between atoms: _380  and  _381
REMARK  164  A    between atoms: _384  and  _386
REMARK  165  A    between atoms: _386  and  _387
REMARK  166  A    between atoms: _389  and  _391
REMARK  167  A    between atoms: _391  and  _392
REMARK  168  A    between atoms: _391  and  _394
REMARK  169  A    between atoms: _394  and  _395
REMARK  170  A    between atoms: _401  and  _403
REMARK  171  A    between atoms: _403  and  _404
REMARK  172  A    between atoms: _403  and  _406
REMARK  173  A    between atoms: _406  and  _407
REMARK  174  A    between atoms: _410  and  _412
REMARK  175  A    between atoms: _412  and  _413
REMARK  176  A    between atoms: _416  and  _418
REMARK  177  A    between atoms: _418  and  _419
REMARK  178  A    between atoms: _422  and  _424
REMARK  179  A    between atoms: _424  and  _425
REMARK  180  A    between atoms: _424  and  _427
REMARK  181  A    between atoms: _427  and  _428
REMARK  182  A    between atoms: _430  and  _432
REMARK  183  A    between atoms: _432  and  _433
REMARK  184  A    between atoms: _432  and  _435
REMARK  185  A    between atoms: _438  and  _440
REMARK  186  A    between atoms: _440  and  _441
REMARK  187  A    between atoms: _440  and  _443
REMARK  188  A    between atoms: _443  and  _444
REMARK  189  A    between atoms: _450  and  _452
REMARK  190  A    between atoms: _452  and  _453
REMARK  191  A    between atoms: _452  and  _455
REMARK  192  A    between atoms: _455  and  _456
REMARK  193  A    between atoms: _461  and  _463
REMARK  194  A    between atoms: _463  and  _464
REMARK  195  A    between atoms: _463  and  _466
REMARK  196  A    between atoms: _466  and  _467
REMARK                            x       y       z     vdW  Elec       q    Type
REMARK                         _______ _______ _______ _____ _____    ______ ____
ROOT
ATOM      1  CA  VAL A   3       7.178  23.014  22.868  0.00  0.00    +0.149 C 
ENDROOT
BRANCH   1   4
ATOM      2  C   ILE A   2       6.074  20.923  22.287  0.00  0.00    +0.241 C 
ATOM      3  O   ILE A   2       6.780  20.262  23.052  0.00  0.00    -0.273 OA
ATOM      4  N   VAL A   3       6.256  22.220  22.071  0.00  0.00    -0.297 N 
ATOM      5  H   VAL A   3       5.723  22.683  21.308  0.00  0.00    +0.150 HD
BRANCH   2   6
ATOM      6  CA  ILE A   2       4.977  20.257  21.471  0.00  0.00    +0.148 C 
BRANCH   6   8
ATOM      7  C   ALA A   1       5.476  18.986  19.465  0.00  0.00    +0.238 C 
ATOM      8  N   ILE A   2       5.553  19.112  20.784  0.00  0.00    -0.297 N 
ATOM      9  H   ILE A   2       6.036  18.376  21.338  0.00  0.00    +0.150 HD
ATOM     10  O   ALA A   1       4.897  19.807  18.736  0.00  0.00    -0.274 OA
BRANCH   7  11
ATOM     11  CA  ALA A   1       6.132  17.742  18.886  0.00  0.00    +0.145 C 
ATOM     12  CB  ALA A   1       7.476  18.091  18.258  0.00  0.00    +0.028 C 
BRANCH  11  13
ATOM     13  N   ALA A   1       5.240  17.120  17.916  0.00  0.00    -0.238 NA
ATOM     14  H   ALA A   1       5.345  17.360  16.910  0.00  0.00    +0.142 HD
ENDBRANCH  11  13
ENDBRANCH   7  11
ENDBRANCH   6   8
BRANCH   6  15
ATOM     15  CB  ILE A   2       3.793  19.842  22.377  0.00  0.00    +0.027 C 
ATOM     16  CG2 ILE A   2       3.089  21.069  22.926  0.00  0.00    +0.002 C 
BRANCH  15  17
ATOM     17  CG1 ILE A   2       2.804  18.984  21.588  0.00  0.00    +0.002 C 
ATOM     18  CD1 ILE A   2       1.605  18.524  22.374  0.00  0.00    +0.000 C 
ENDBRANCH  15  17
ENDBRANCH   6  15
ENDBRANCH   2   6
ENDBRANCH   1   4
BRANCH   1  19
ATOM     19  C   VAL A   3       6.343  23.913  23.763  0.00  0.00    +0.241 C 
ATOM     20  N   ALA A   4       6.450  23.725  25.072  0.00  0.00    -0.297 N 
ATOM     21  H   ALA A   4       7.090  22.995  25.445  0.00  0.00    +0.150 HD
ATOM     22  O   VAL A   3       5.589  24.759  23.274  0.00  0.00    -0.273 OA
BRANCH  20  23
ATOM     23  CA  ALA A   4       5.664  24.549  25.986  0.00  0.00    +0.149 C 
ATOM     24  CB  ALA A   4       4.646  23.710  26.731  0.00  0.00    +0.031 C 
BRANCH  23  25
ATOM     25  C   ALA A   4       6.577  25.283  26.957  0.00  0.00    +0.241 C 
ATOM     26  N   LYS A   5       6.144  26.463  27.399  0.00  0.00    -0.298 N 
ATOM     27  H   LYS A   5       5.285  26.871  26.979  0.00  0.00    +0.150 HD
ATOM     28  O   ALA A   4       7.657  24.793  27.276  0.00  0.00    -0.273 OA
BRANCH  26  29
ATOM     29  CA  LYS A   5       6.834  27.205  28.454  0.00  0.00    +0.137 C 
BRANCH  29  30
ATOM     30  C   LYS A   5       5.806  27.633  29.485  0.00  0.00    +0.227 C 
ATOM     31  O   LYS A   5       4.615  27.728  29.171  0.00  0.00    -0.286 OA
ENDBRANCH  29  30
BRANCH  29  32
ATOM     32  CB  LYS A   5       7.487  28.480  27.916  0.00  0.00    +0.028 C 
BRANCH  32  33
ATOM     33  CG  LYS A   5       8.464  28.312  26.780  0.00  0.00    -0.000 C 
BRANCH  33  34
ATOM     34  CD  LYS A   5       9.080  29.670  26.474  0.00  0.00    -0.024 C 
BRANCH  34  35
ATOM     35  CE  LYS A   5       9.671  29.742  25.085  0.00  0.00    -0.086 C 
BRANCH  35  36
ATOM     36  NZ  LYS A   5       9.943  31.164  24.711  0.00  0.00    +0.380 N 
ATOM     37  HZ1 LYS A   5      10.615  31.577  25.389  0.00  0.00    -0.089 HD
ATOM     38  HZ2 LYS A   5       9.054  31.703  24.731  0.00  0.00    -0.089 HD
ATOM     39  HZ3 LYS A   5      10.349  31.198  23.754  0.00  0.00    -0.089 HD
ENDBRANCH  35  36
ENDBRANCH  34  35
ENDBRANCH  33  34
ENDBRANCH  32  33
ENDBRANCH  29  32
ENDBRANCH  26  29
ENDBRANCH  23  25
ENDBRANCH  20  23
ENDBRANCH   1  19
BRANCH   1  40
ATOM     40  CB  VAL A   3       8.070  23.887  21.984  0.00  0.00    +0.027 C 
ATOM     41  CG2 VAL A   3       8.904  24.846  22.837  0.00  0.00    +0.002 C 
ATOM     42  CG1 VAL A   3       8.972  23.010  21.127  0.00  0.00    +0.002 C 
ENDBRANCH   1  40
TORSDOF 18
REMARK  Name = ../refined-set-2016/4ewn/4ewn_pocket.pdb
REMARK  196 active torsions:
REMARK  status: ('A' for Active; 'I' for Inactive)
REMARK    1  A    between atoms: _1  and  _3
REMARK    2  A    between atoms: _3  and  _4
REMARK    3  A    between atoms: _3  and  _6
REMARK    4  A    between atoms: _6  and  _7
REMARK    5  A    between atoms: _10  and  _12
REMARK    6  A    between atoms: _12  and  _13
REMARK    7  A    between atoms: _16  and  _18
REMARK    8  A    between atoms: _18  and  _19
REMARK    9  A    between atoms: _18  and  _21
REMARK   10  A    between atoms: _23  and  _25
REMARK   11  A    between atoms: _25  and  _26
REMARK   12  A    between atoms: _25  and  _28
REMARK   13  A    between atoms: _28  and  _29
REMARK   14  A    between atoms: _32  and  _34
REMARK   15  A    between atoms: _34  and  _35
REMARK   16  A    between atoms: _34  and  _37
REMARK   17  A    between atoms: _37  and  _38
REMARK   18  A    between atoms: _41  and  _43
REMARK   19  A    between atoms: _43  and  _44
REMARK   20  A    between atoms: _43  and  _46
REMARK   21  A    between atoms: _49  and  _51
REMARK   22  A    between atoms: _51  and  _52
REMARK   23  A    between atoms: _51  and  _54
REMARK   24  A    between atoms: _54  and  _55
REMARK   25  A    between atoms: _58  and  _60
REMARK   26  A    between atoms: _60  and  _61
REMARK   27  A    between atoms: _60  and  _63
REMARK   28  A    between atoms: _63  and  _64
REMARK   29  A    between atoms: _67  and  _69
REMARK   30  A    between atoms: _69  and  _70
REMARK   31  A    between atoms: _69  and  _72
REMARK   32  A    between atoms: _72  and  _73
REMARK   33  A    between atoms: _76  and  _78
REMARK   34  A    between atoms: _78  and  _79
REMARK   35  A    between atoms: _81  and  _83
REMARK   36  A    between atoms: _83  and  _84
REMARK   37  A    between atoms: _86  and  _88
REMARK   38  A    between atoms: _88  and  _89
REMARK   39  A    between atoms: _91  and  _93
REMARK   40  A    between atoms: _93  and  _94
REMARK   41  A    between atoms: _93  and  _96
REMARK   42  A    between atoms: _96  and  _97
REMARK   43  A    between atoms: _99  and  _101
REMARK   44  A    between atoms: _101  and  _102
REMARK   45  A    between atoms: _101  and  _104
REMARK   46  A    between atoms: _104  and  _105
REMARK   47  A    between atoms: _110  and  _112
REMARK   48  A    between atoms: _112  and  _113
REMARK   49  A    between atoms: _112  and  _115
REMARK   50  A    between atoms: _115  and  _116
REMARK   51  A    between atoms: _119  and  _121
REMARK   52  A    between atoms: _121  and  _122
REMARK   53  A    between atoms: _125  and  _127
REMARK   54  A    between atoms: _127  and  _128
REMARK   55  A    between atoms: _127  and  _130
REMARK   56  A    between atoms: _130  and  _131
REMARK   57  A    between atoms: _134  and  _136
REMARK   58  A    between atoms: _136  and  _137
REMARK   59  A    between atoms: _136  and  _139
REMARK   60  A    between atoms: _142  and  _144
REMARK   61  A    between atoms: _144  and  _145
REMARK   62  A    between atoms: _148  and  _150
REMARK   63  A    between atoms: _150  and  _151
REMARK   64  A    between atoms: _150  and  _153
REMARK   65  A    between atoms: _153  and  _154
REMARK   66  A    between atoms: _154  and  _155
REMARK   67  A    between atoms: _155  and  _156
REMARK   68  A    between atoms: _156  and  _157
REMARK   69  A    between atoms: _161  and  _163
REMARK   70  A    between atoms: _163  and  _164
REMARK   71  A    between atoms: _163  and  _166
REMARK   72  A    between atoms: _166  and  _167
REMARK   73  A    between atoms: _173  and  _175
REMARK   74  A    between atoms: _175  and  _176
REMARK   75  A    between atoms: _175  and  _178
REMARK   76  A    between atoms: _178  and  _179
REMARK   77  A    between atoms: _182  and  _184
REMARK   78  A    between atoms: _184  and  _185
REMARK   79  A    between atoms: _184  and  _187
REMARK   80  A    between atoms: _187  and  _188
REMARK   81  A    between atoms: _193  and  _194
REMARK   82  A    between atoms: _196  and  _198
REMARK   83  A    between atoms: _198  and  _199
REMARK   84  A    between atoms: _198  and  _201
REMARK   85  A    between atoms: _201  and  _202
REMARK   86  A    between atoms: _204  and  _206
REMARK   87  A    between atoms: _206  and  _207
REMARK   88  A    between atoms: _209  and  _211
REMARK   89  A    between atoms: _211  and  _212
REMARK   90  A    between atoms: _211  and  _214
REMARK   91  A    between atoms: _214  and  _215
REMARK   92  A    between atoms: _215  and  _216
REMARK   93  A    between atoms: _216  and  _217
REMARK   94  A    between atoms: _217  and  _218
REMARK   95  A    between atoms: _222  and  _224
REMARK   96  A    between atoms: _224  and  _225
REMARK   97  A    between atoms: _224  and  _227
REMARK   98  A    between atoms: _227  and  _228
REMARK   99  A    between atoms: _231  and  _233
REMARK  100  A    between atoms: _233  and  _234
REMARK  101  A    between atoms: _233  and  _236
REMARK  102  A    between atoms: _236  and  _237
REMARK  103  A    between atoms: _240  and  _242
REMARK  104  A    between atoms: _242  and  _243
REMARK  105  A    between atoms: _242  and  _245
REMARK  106  A    between atoms: _245  and  _246
REMARK  107  A    between atoms: _249  and  _251
REMARK  108  A    between atoms: _251  and  _252
REMARK  109  A    between atoms: _251  and  _254
REMARK  110  A    between atoms: _254  and  _255
REMARK  111  A    between atoms: _257  and  _259
REMARK  112  A    between atoms: _259  and  _260
REMARK  113  A    between atoms: _259  and  _262
REMARK  114  A    between atoms: _262  and  _263
REMARK  115  A    between atoms: _266  and  _268
REMARK  116  A    between atoms: _268  and  _269
REMARK  117  A    between atoms: _268  and  _271
REMARK  118  A    between atoms: _271  and  _272
REMARK  119  A    between atoms: _275  and  _277
REMARK  120  A    between atoms: _277  and  _278
REMARK  121  A    between atoms: _277  and  _280
REMARK  122  A    between atoms: _280  and  _281
REMARK  123  A    between atoms: _281  and  _282
REMARK  124  A    between atoms: _282  and  _283
REMARK  125  A    between atoms: _292  and  _294
REMARK  126  A    between atoms: _294  and  _295
REMARK  127  A    between atoms: _294  and  _297
REMARK  128  A    between atoms: _300  and  _302
REMARK  129  A    between atoms: _302  and  _303
REMARK  130  A    between atoms: _305  and  _307
REMARK  131  A    between atoms: _307  and  _308
REMARK  132  A    between atoms: _307  and  _310
REMARK  133  A    between atoms: _310  and  _311
REMARK  134  A    between atoms: _314  and  _316
REMARK  135  A    between atoms: _316  and  _317
REMARK  136  A    between atoms: _316  and  _319
REMARK  137  A    between atoms: _319  and  _320
REMARK  138  A    between atoms: _320  and  _321
REMARK  139  A    between atoms: _321  and  _322
REMARK  140  A    between atoms: _322  and  _323
REMARK  141  A    between atoms: _327  and  _329
REMARK  142  A    between atoms: _329  and  _330
REMARK  143  A    between atoms: _329  and  _332
REMARK  144  A    between atoms: _332  and  _333
REMARK  145  A    between atoms: _335  and  _337
REMARK  146  A    between atoms: _337  and  _338
REMARK  147  A    between atoms: _340  and  _342
REMARK  148  A    between atoms: _342  and  _343
REMARK  149  A    between atoms: _342  and  _345
REMARK  150  A    between atoms: _345  and  _346
REMARK  151  A    between atoms: _351  and  _352
REMARK  152  A    between atoms: _354  and  _356
REMARK  153  A    between atoms: _356  and  _357
REMARK  154  A    between atoms: _360  and  _362
REMARK  155  A    between atoms: _362  and  _363
REMARK  156  A    between atoms: _362  and  _365
REMARK  157  A    between atoms: _365  and  _366
REMARK  158  A    between atoms: _368  and  _370
REMARK  159  A    between atoms: _370  and  _371
REMARK  160  A    between atoms: _373  and  _375
REMARK  161  A    between atoms: _375  and  _376
REMARK  162  A    between atoms: _378  and  _380
REMARK  163  A    between atoms: _380  and  _381
REMARK  164  A    between atoms: _384  and  _386
REMARK  165  A    between atoms: _386  and  _387
REMARK  166  A    between atoms: _389  and  _391
REMARK  167  A    between atoms: _391  and  _392
REMARK  168  A    between atoms: _391  and  _394
REMARK  169  A    between atoms: _394  and  _395
REMARK  170  A    between atoms: _401  and  _403
REMARK  171  A    between atoms: _403  and  _404
REMARK  172  A    between atoms: _403  and  _406
REMARK  173  A    between atoms: _406  and  _407
REMARK  174  A    between atoms: _410  and  _412
REMARK  175  A    between atoms: _412  and  _413
REMARK  176  A    between atoms: _416  and  _418
REMARK  177  A    between atoms: _418  and  _419
REMARK  178  A    between atoms: _422  and  _424
REMARK  179  A    between atoms: _424  and  _425
REMARK  180  A    between atoms: _424  and  _427
REMARK  181  A    between atoms: _427  and  _428
REMARK  182  A    between atoms: _430  and  _432
REMARK  183  A    between atoms: _432  and  _433
REMARK  184  A    between atoms: _432  and  _435
REMARK  185  A    between atoms: _438  and  _440
REMARK  186  A    between atoms: _440  and  _441
REMARK  187  A    between atoms: _440  and  _443
REMARK  188  A    between atoms: _443  and  _444
REMARK  189  A    between atoms: _450  and  _452
REMARK  190  A    between atoms: _452  and  _453
REMARK  191  A    between atoms: _452  and  _455
REMARK  192  A    between atoms: _455  and  _456
REMARK  193  A    between atoms: _461  and  _463
REMARK  194  A    between atoms: _463  and  _464
REMARK  195  A    between atoms: _463  and  _466
REMARK  196  A    between atoms: _466  and  _467
REMARK                            x       y       z     vdW  Elec       q    Type
REMARK                         _______ _______ _______ _____ _____    ______ ____
ROOT
ATOM      1  CA  TYR A   3       8.754  28.677  15.611  0.00  0.00    +0.153 C 
ENDROOT
BRANCH   1   4
ATOM      2  C   THR A   2       7.040  28.431  17.373  0.00  0.00    +0.243 C 
ATOM      3  O   THR A   2       7.480  29.365  18.048  0.00  0.00    -0.273 OA
ATOM      4  N   TYR A   3       7.569  28.045  16.209  0.00  0.00    -0.297 N 
ATOM      5  H   TYR A   3       7.120  27.257  15.700  0.00  0.00    +0.150 HD
BRANCH   2   6
ATOM      6  CA  THR A   2       5.814  27.662  17.836  0.00  0.00    +0.176 C 
BRANCH   6   9
ATOM      7  C   PHE A   1       5.438  27.320  20.215  0.00  0.00    +0.239 C 
ATOM      8  O   PHE A   1       5.745  26.131  20.154  0.00  0.00    -0.274 OA
ATOM      9  N   THR A   2       5.408  28.125  19.154  0.00  0.00    -0.295 N 
ATOM     10  H   THR A   2       5.087  29.107  19.271  0.00  0.00    +0.150 HD
BRANCH   7  11
ATOM     11  CA  PHE A   1       5.076  27.955  21.548  0.00  0.00    +0.149 C 
BRANCH  11  12
ATOM     12  N   PHE A   1       4.282  27.072  22.395  0.00  0.00    -0.238 NA
ATOM     13  H   PHE A   1       4.737  26.227  22.796  0.00  0.00    +0.142 HD
ENDBRANCH  11  12
BRANCH  11  14
ATOM     14  CB  PHE A   1       6.361  28.370  22.259  0.00  0.00    +0.053 C 
BRANCH  14  15
ATOM     15  CG  PHE A   1       6.149  29.445  23.285  0.00  0.00    -0.020 A 
ATOM     16  CD2 PHE A   1       5.376  29.197  24.409  0.00  0.00    -0.004 A 
ATOM     17  CE2 PHE A   1       5.167  30.195  25.367  0.00  0.00    -0.000 A 
ATOM     18  CZ  PHE A   1       5.733  31.446  25.187  0.00  0.00    -0.000 A 
ATOM     19  CE1 PHE A   1       6.498  31.701  24.067  0.00  0.00    -0.000 A 
ATOM     20  CD1 PHE A   1       6.706  30.701  23.123  0.00  0.00    -0.004 A 
ENDBRANCH  14  15
ENDBRANCH  11  14
ENDBRANCH   7  11
ENDBRANCH   6   9
BRANCH   6  21
ATOM     21  CB  THR A   2       4.682  27.834  16.794  0.00  0.00    +0.137 C 
ATOM     22  CG2 THR A   2       3.611  26.796  17.000  0.00  0.00    +0.034 C 
BRANCH  21  23
ATOM     23  OG1 THR A   2       4.089  29.122  16.945  0.00  0.00    -0.382 OA
ATOM     24  HG1 THR A   2       3.365  29.231  16.278  0.00  0.00    +0.210 HD
ENDBRANCH  21  23
ENDBRANCH   6  21
ENDBRANCH   2   6
ENDBRANCH   1   4
BRANCH   1  25
ATOM     25  C   TYR A   3       9.958  28.577  16.533  0.00  0.00    +0.241 C 
ATOM     26  N   SER A   4      10.235  27.348  16.953  0.00  0.00    -0.295 N 
ATOM     27  H   SER A   4       9.620  26.565  16.651  0.00  0.00    +0.150 HD
ATOM     28  O   TYR A   3      10.618  29.576  16.851  0.00  0.00    -0.273 OA
BRANCH  26  29
ATOM     29  CA  SER A   4      11.370  27.054  17.823  0.00  0.00    +0.178 C 
BRANCH  29  30
ATOM     30  C   SER A   4      11.352  27.895  19.093  0.00  0.00    +0.243 C 
ATOM     31  N   GLY A   5      10.162  28.057  19.665  0.00  0.00    -0.295 N 
ATOM     32  H   GLY A   5       9.317  27.680  19.190  0.00  0.00    +0.150 HD
ATOM     33  O   SER A   4      12.392  28.402  19.532  0.00  0.00    -0.273 OA
BRANCH  31  34
ATOM     34  CA  GLY A   5      10.009  28.747  20.938  0.00  0.00    +0.176 C 
BRANCH  34  35
ATOM     35  C   GLY A   5       9.900  30.260  20.846  0.00  0.00    +0.243 C 
ATOM     36  O   GLY A   5       9.954  30.943  21.876  0.00  0.00    -0.273 OA
ATOM     37  N   LYS A   6       9.739  30.795  19.633  0.00  0.00    -0.298 N 
ATOM     38  H   LYS A   6       9.647  30.171  18.806  0.00  0.00    +0.150 HD
BRANCH  37  39
ATOM     39  CA  LYS A   6       9.690  32.254  19.449  0.00  0.00    +0.137 C 
BRANCH  39  40
ATOM     40  C   LYS A   6       8.289  32.842  19.590  0.00  0.00    +0.227 C 
ATOM     41  O   LYS A   6       8.143  34.005  19.942  0.00  0.00    -0.286 OA
ENDBRANCH  39  40
BRANCH  39  42
ATOM     42  CB  LYS A   6      10.273  32.664  18.085  0.00  0.00    +0.028 C 
BRANCH  42  43
ATOM     43  CG  LYS A   6      11.768  32.463  17.969  0.00  0.00    -0.000 C 
BRANCH  43  44
ATOM     44  CD  LYS A   6      12.252  32.603  16.530  0.00  0.00    -0.024 C 
BRANCH  44  45
ATOM     45  CE  LYS A   6      13.631  31.969  16.382  0.00  0.00    -0.086 C 
BRANCH  45  46
ATOM     46  NZ  LYS A   6      14.154  31.930  14.984  0.00  0.00    +0.380 N 
ATOM     47  HZ1 LYS A   6      15.093  31.484  14.979  0.00  0.00    -0.089 HD
ATOM     48  HZ2 LYS A   6      14.228  32.900  14.615  0.00  0.00    -0.089 HD
ATOM     49  HZ3 LYS A   6      13.504  31.379  14.387  0.00  0.00    -0.089 HD
ENDBRANCH  45  46
ENDBRANCH  44  45
ENDBRANCH  43  44
ENDBRANCH  42  43
ENDBRANCH  39  42
ENDBRANCH  37  39
ENDBRANCH  34  35
ENDBRANCH  31  34
ENDBRANCH  29  30
BRANCH  29  50
ATOM     50  CB  SER A   4      12.686  27.245  17.071  0.00  0.00    +0.166 C 
BRANCH  50  51
ATOM     51  OG  SER A   4      12.671  26.530  15.849  0.00  0.00    -0.380 OA
ATOM     52  H   SER A   4      11.928  26.860  15.284  0.00  0.00    +0.211 HD
ENDBRANCH  50  51
ENDBRANCH  29  50
ENDBRANCH  26  29
ENDBRANCH   1  25
BRANCH   1  53
ATOM     53  CB  TYR A   3       8.465  30.126  15.188  0.00  0.00    +0.055 C 
BRANCH  53  54
ATOM     54  CG  TYR A   3       7.341  30.216  14.178  0.00  0.00    -0.020 A 
ATOM     55  CD2 TYR A   3       6.054  30.549  14.568  0.00  0.00    -0.001 A 
ATOM     56  CE2 TYR A   3       5.025  30.622  13.647  0.00  0.00    +0.036 A 
ATOM     57  CZ  TYR A   3       5.283  30.352  12.320  0.00  0.00    +0.134 A 
ATOM     58  CE1 TYR A   3       6.552  30.016  11.911  0.00  0.00    +0.036 A 
ATOM     59  CD1 TYR A   3       7.569  29.948  12.835  0.00  0.00    -0.001 A 
BRANCH  57  60
ATOM     60  OH  TYR A   3       4.270  30.420  11.390  0.00  0.00    -0.506 OA
ATOM     61  HH  TYR A   3       3.559  29.775  11.631  0.00  0.00    +0.292 HD
ENDBRANCH  57  60
ENDBRANCH  53  54
ENDBRANCH   1  53
TORSDOF 26
REMARK  Name = ../refined-set-2016/4ewn/4ewn_pocket.pdb
REMARK  196 active torsions:
REMARK  status: ('A' for Active; 'I' for Inactive)
REMARK    1  A    between atoms: _1  and  _3
REMARK    2  A    between atoms: _3  and  _4
REMARK    3  A    between atoms: _3  and  _6
REMARK    4  A    between atoms: _6  and  _7
REMARK    5  A    between atoms: _10  and  _12
REMARK    6  A    between atoms: _12  and  _13
REMARK    7  A    between atoms: _16  and  _18
REMARK    8  A    between atoms: _18  and  _19
REMARK    9  A    between atoms: _18  and  _21
REMARK   10  A    between atoms: _23  and  _25
REMARK   11  A    between atoms: _25  and  _26
REMARK   12  A    between atoms: _25  and  _28
REMARK   13  A    between atoms: _28  and  _29
REMARK   14  A    between atoms: _32  and  _34
REMARK   15  A    between atoms: _34  and  _35
REMARK   16  A    between atoms: _34  and  _37
REMARK   17  A    between atoms: _37  and  _38
REMARK   18  A    between atoms: _41  and  _43
REMARK   19  A    between atoms: _43  and  _44
REMARK   20  A    between atoms: _43  and  _46
REMARK   21  A    between atoms: _49  and  _51
REMARK   22  A    between atoms: _51  and  _52
REMARK   23  A    between atoms: _51  and  _54
REMARK   24  A    between atoms: _54  and  _55
REMARK   25  A    between atoms: _58  and  _60
REMARK   26  A    between atoms: _60  and  _61
REMARK   27  A    between atoms: _60  and  _63
REMARK   28  A    between atoms: _63  and  _64
REMARK   29  A    between atoms: _67  and  _69
REMARK   30  A    between atoms: _69  and  _70
REMARK   31  A    between atoms: _69  and  _72
REMARK   32  A    between atoms: _72  and  _73
REMARK   33  A    between atoms: _76  and  _78
REMARK   34  A    between atoms: _78  and  _79
REMARK   35  A    between atoms: _81  and  _83
REMARK   36  A    between atoms: _83  and  _84
REMARK   37  A    between atoms: _86  and  _88
REMARK   38  A    between atoms: _88  and  _89
REMARK   39  A    between atoms: _91  and  _93
REMARK   40  A    between atoms: _93  and  _94
REMARK   41  A    between atoms: _93  and  _96
REMARK   42  A    between atoms: _96  and  _97
REMARK   43  A    between atoms: _99  and  _101
REMARK   44  A    between atoms: _101  and  _102
REMARK   45  A    between atoms: _101  and  _104
REMARK   46  A    between atoms: _104  and  _105
REMARK   47  A    between atoms: _110  and  _112
REMARK   48  A    between atoms: _112  and  _113
REMARK   49  A    between atoms: _112  and  _115
REMARK   50  A    between atoms: _115  and  _116
REMARK   51  A    between atoms: _119  and  _121
REMARK   52  A    between atoms: _121  and  _122
REMARK   53  A    between atoms: _125  and  _127
REMARK   54  A    between atoms: _127  and  _128
REMARK   55  A    between atoms: _127  and  _130
REMARK   56  A    between atoms: _130  and  _131
REMARK   57  A    between atoms: _134  and  _136
REMARK   58  A    between atoms: _136  and  _137
REMARK   59  A    between atoms: _136  and  _139
REMARK   60  A    between atoms: _142  and  _144
REMARK   61  A    between atoms: _144  and  _145
REMARK   62  A    between atoms: _148  and  _150
REMARK   63  A    between atoms: _150  and  _151
REMARK   64  A    between atoms: _150  and  _153
REMARK   65  A    between atoms: _153  and  _154
REMARK   66  A    between atoms: _154  and  _155
REMARK   67  A    between atoms: _155  and  _156
REMARK   68  A    between atoms: _156  and  _157
REMARK   69  A    between atoms: _161  and  _163
REMARK   70  A    between atoms: _163  and  _164
REMARK   71  A    between atoms: _163  and  _166
REMARK   72  A    between atoms: _166  and  _167
REMARK   73  A    between atoms: _173  and  _175
REMARK   74  A    between atoms: _175  and  _176
REMARK   75  A    between atoms: _175  and  _178
REMARK   76  A    between atoms: _178  and  _179
REMARK   77  A    between atoms: _182  and  _184
REMARK   78  A    between atoms: _184  and  _185
REMARK   79  A    between atoms: _184  and  _187
REMARK   80  A    between atoms: _187  and  _188
REMARK   81  A    between atoms: _193  and  _194
REMARK   82  A    between atoms: _196  and  _198
REMARK   83  A    between atoms: _198  and  _199
REMARK   84  A    between atoms: _198  and  _201
REMARK   85  A    between atoms: _201  and  _202
REMARK   86  A    between atoms: _204  and  _206
REMARK   87  A    between atoms: _206  and  _207
REMARK   88  A    between atoms: _209  and  _211
REMARK   89  A    between atoms: _211  and  _212
REMARK   90  A    between atoms: _211  and  _214
REMARK   91  A    between atoms: _214  and  _215
REMARK   92  A    between atoms: _215  and  _216
REMARK   93  A    between atoms: _216  and  _217
REMARK   94  A    between atoms: _217  and  _218
REMARK   95  A    between atoms: _222  and  _224
REMARK   96  A    between atoms: _224  and  _225
REMARK   97  A    between atoms: _224  and  _227
REMARK   98  A    between atoms: _227  and  _228
REMARK   99  A    between atoms: _231  and  _233
REMARK  100  A    between atoms: _233  and  _234
REMARK  101  A    between atoms: _233  and  _236
REMARK  102  A    between atoms: _236  and  _237
REMARK  103  A    between atoms: _240  and  _242
REMARK  104  A    between atoms: _242  and  _243
REMARK  105  A    between atoms: _242  and  _245
REMARK  106  A    between atoms: _245  and  _246
REMARK  107  A    between atoms: _249  and  _251
REMARK  108  A    between atoms: _251  and  _252
REMARK  109  A    between atoms: _251  and  _254
REMARK  110  A    between atoms: _254  and  _255
REMARK  111  A    between atoms: _257  and  _259
REMARK  112  A    between atoms: _259  and  _260
REMARK  113  A    between atoms: _259  and  _262
REMARK  114  A    between atoms: _262  and  _263
REMARK  115  A    between atoms: _266  and  _268
REMARK  116  A    between atoms: _268  and  _269
REMARK  117  A    between atoms: _268  and  _271
REMARK  118  A    between atoms: _271  and  _272
REMARK  119  A    between atoms: _275  and  _277
REMARK  120  A    between atoms: _277  and  _278
REMARK  121  A    between atoms: _277  and  _280
REMARK  122  A    between atoms: _280  and  _281
REMARK  123  A    between atoms: _281  and  _282
REMARK  124  A    between atoms: _282  and  _283
REMARK  125  A    between atoms: _292  and  _294
REMARK  126  A    between atoms: _294  and  _295
REMARK  127  A    between atoms: _294  and  _297
REMARK  128  A    between atoms: _300  and  _302
REMARK  129  A    between atoms: _302  and  _303
REMARK  130  A    between atoms: _305  and  _307
REMARK  131  A    between atoms: _307  and  _308
REMARK  132  A    between atoms: _307  and  _310
REMARK  133  A    between atoms: _310  and  _311
REMARK  134  A    between atoms: _314  and  _316
REMARK  135  A    between atoms: _316  and  _317
REMARK  136  A    between atoms: _316  and  _319
REMARK  137  A    between atoms: _319  and  _320
REMARK  138  A    between atoms: _320  and  _321
REMARK  139  A    between atoms: _321  and  _322
REMARK  140  A    between atoms: _322  and  _323
REMARK  141  A    between atoms: _327  and  _329
REMARK  142  A    between atoms: _329  and  _330
REMARK  143  A    between atoms: _329  and  _332
REMARK  144  A    between atoms: _332  and  _333
REMARK  145  A    between atoms: _335  and  _337
REMARK  146  A    between atoms: _337  and  _338
REMARK  147  A    between atoms: _340  and  _342
REMARK  148  A    between atoms: _342  and  _343
REMARK  149  A    between atoms: _342  and  _345
REMARK  150  A    between atoms: _345  and  _346
REMARK  151  A    between atoms: _351  and  _352
REMARK  152  A    between atoms: _354  and  _356
REMARK  153  A    between atoms: _356  and  _357
REMARK  154  A    between atoms: _360  and  _362
REMARK  155  A    between atoms: _362  and  _363
REMARK  156  A    between atoms: _362  and  _365
REMARK  157  A    between atoms: _365  and  _366
REMARK  158  A    between atoms: _368  and  _370
REMARK  159  A    between atoms: _370  and  _371
REMARK  160  A    between atoms: _373  and  _375
REMARK  161  A    between atoms: _375  and  _376
REMARK  162  A    between atoms: _378  and  _380
REMARK  163  A    between atoms: _380  and  _381
REMARK  164  A    between atoms: _384  and  _386
REMARK  165  A    between atoms: _386  and  _387
REMARK  166  A    between atoms: _389  and  _391
REMARK  167  A    between atoms: _391  and  _392
REMARK  168  A    between atoms: _391  and  _394
REMARK  169  A    between atoms: _394  and  _395
REMARK  170  A    between atoms: _401  and  _403
REMARK  171  A    between atoms: _403  and  _404
REMARK  172  A    between atoms: _403  and  _406
REMARK  173  A    between atoms: _406  and  _407
REMARK  174  A    between atoms: _410  and  _412
REMARK  175  A    between atoms: _412  and  _413
REMARK  176  A    between atoms: _416  and  _418
REMARK  177  A    between atoms: _418  and  _419
REMARK  178  A    between atoms: _422  and  _424
REMARK  179  A    between atoms: _424  and  _425
REMARK  180  A    between atoms: _424  and  _427
REMARK  181  A    between atoms: _427  and  _428
REMARK  182  A    between atoms: _430  and  _432
REMARK  183  A    between atoms: _432  and  _433
REMARK  184  A    between atoms: _432  and  _435
REMARK  185  A    between atoms: _438  and  _440
REMARK  186  A    between atoms: _440  and  _441
REMARK  187  A    between atoms: _440  and  _443
REMARK  188  A    between atoms: _443  and  _444
REMARK  189  A    between atoms: _450  and  _452
REMARK  190  A    between atoms: _452  and  _453
REMARK  191  A    between atoms: _452  and  _455
REMARK  192  A    between atoms: _455  and  _456
REMARK  193  A    between atoms: _461  and  _463
REMARK  194  A    between atoms: _463  and  _464
REMARK  195  A    between atoms: _463  and  _466
REMARK  196  A    between atoms: _466  and  _467
REMARK                            x       y       z     vdW  Elec       q    Type
REMARK                         _______ _______ _______ _____ _____    ______ ____
ROOT
ATOM      1  CA  ARG A   7      15.589  22.508  29.828  0.00  0.00    +0.149 C 
ENDROOT
BRANCH   1   4
ATOM      2  C   ASP A   6      14.762  24.824  29.695  0.00  0.00    +0.241 C 
ATOM      3  O   ASP A   6      15.473  25.206  30.627  0.00  0.00    -0.273 OA
ATOM      4  N   ARG A   7      14.713  23.555  29.289  0.00  0.00    -0.297 N 
ATOM      5  H   ARG A   7      14.022  23.295  28.556  0.00  0.00    +0.150 HD
BRANCH   2   6
ATOM      6  CA  ASP A   6      13.880  25.818  28.927  0.00  0.00    +0.160 C 
BRANCH   6   8
ATOM      7  C   ILE A   5      13.584  24.870  26.699  0.00  0.00    +0.241 C 
ATOM      8  N   ASP A   6      13.066  25.182  27.887  0.00  0.00    -0.297 N 
ATOM      9  H   ASP A   6      12.066  24.970  28.079  0.00  0.00    +0.150 HD
ATOM     10  O   ILE A   5      14.786  25.020  26.435  0.00  0.00    -0.273 OA
BRANCH   7  11
ATOM     11  CA  ILE A   5      12.618  24.297  25.648  0.00  0.00    +0.149 C 
BRANCH  11  14
ATOM     12  C   SER A   4      11.741  22.449  27.022  0.00  0.00    +0.243 C 
ATOM     13  O   SER A   4      12.849  22.114  27.461  0.00  0.00    -0.273 OA
ATOM     14  N   ILE A   5      11.541  23.477  26.204  0.00  0.00    -0.297 N 
ATOM     15  H   ILE A   5      10.562  23.712  25.944  0.00  0.00    +0.150 HD
BRANCH  12  16
ATOM     16  CA  SER A   4      10.496  21.669  27.391  0.00  0.00    +0.178 C 
BRANCH  16  18
ATOM     17  C   THR A   3       9.621  20.449  25.481  0.00  0.00    +0.243 C 
ATOM     18  N   SER A   4      10.468  20.519  26.502  0.00  0.00    -0.295 N 
ATOM     19  H   SER A   4      11.127  19.732  26.669  0.00  0.00    +0.150 HD
ATOM     20  O   THR A   3       8.661  21.229  25.337  0.00  0.00    -0.273 OA
BRANCH  17  21
ATOM     21  CA  THR A   3       9.866  19.293  24.503  0.00  0.00    +0.176 C 
BRANCH  21  24
ATOM     22  C   LEU A   2       8.409  17.440  25.000  0.00  0.00    +0.241 C 
ATOM     23  O   LEU A   2       9.170  16.997  25.854  0.00  0.00    -0.273 OA
ATOM     24  N   THR A   3       8.652  18.541  24.313  0.00  0.00    -0.295 N 
ATOM     25  H   THR A   3       7.952  18.873  23.619  0.00  0.00    +0.150 HD
BRANCH  22  26
ATOM     26  CA  LEU A   2       7.123  16.736  24.664  0.00  0.00    +0.149 C 
BRANCH  26  28
ATOM     27  C   LEU A   1       7.143  15.802  22.442  0.00  0.00    +0.238 C 
ATOM     28  N   LEU A   2       7.365  15.654  23.740  0.00  0.00    -0.297 N 
ATOM     29  H   LEU A   2       7.719  14.744  24.098  0.00  0.00    +0.150 HD
ATOM     30  O   LEU A   1       6.932  16.902  21.916  0.00  0.00    -0.274 OA
BRANCH  27  31
ATOM     31  CA  LEU A   1       7.164  14.515  21.621  0.00  0.00    +0.145 C 
BRANCH  31  32
ATOM     32  N   LEU A   1       5.789  14.234  21.222  0.00  0.00    -0.238 NA
ATOM     33  H   LEU A   1       5.409  14.666  20.355  0.00  0.00    +0.142 HD
ENDBRANCH  31  32
BRANCH  31  34
ATOM     34  CB  LEU A   1       8.082  14.659  20.405  0.00  0.00    +0.026 C 
BRANCH  34  35
ATOM     35  CG  LEU A   1       9.487  15.204  20.652  0.00  0.00    +0.002 C 
ATOM     36  CD2 LEU A   1      10.226  14.316  21.628  0.00  0.00    +0.000 C 
ATOM     37  CD1 LEU A   1      10.240  15.266  19.341  0.00  0.00    +0.000 C 
ENDBRANCH  34  35
ENDBRANCH  31  34
ENDBRANCH  27  31
ENDBRANCH  26  28
BRANCH  26  38
ATOM     38  CB  LEU A   2       6.458  16.189  25.928  0.00  0.00    +0.029 C 
BRANCH  38  39
ATOM     39  CG  LEU A   2       5.878  17.194  26.915  0.00  0.00    +0.002 C 
ATOM     40  CD2 LEU A   2       5.256  16.446  28.105  0.00  0.00    +0.000 C 
ATOM     41  CD1 LEU A   2       4.858  18.089  26.193  0.00  0.00    +0.000 C 
ENDBRANCH  38  39
ENDBRANCH  26  38
ENDBRANCH  22  26
ENDBRANCH  21  24
BRANCH  21  42
ATOM     42  CB  THR A   3      10.385  19.836  23.164  0.00  0.00    +0.137 C 
ATOM     43  CG2 THR A   3      11.656  20.635  23.374  0.00  0.00    +0.034 C 
BRANCH  42  44
ATOM     44  OG1 THR A   3      10.642  18.742  22.273  0.00  0.00    -0.382 OA
ATOM     45  HG1 THR A   3      11.322  18.144  22.674  0.00  0.00    +0.210 HD
ENDBRANCH  42  44
ENDBRANCH  21  42
ENDBRANCH  17  21
ENDBRANCH  16  18
BRANCH  16  46
ATOM     46  CB  SER A   4      10.533  21.247  28.860  0.00  0.00    +0.166 C 
BRANCH  46  47
ATOM     47  OG  SER A   4      10.525  22.376  29.723  0.00  0.00    -0.380 OA
ATOM     48  H   SER A   4      10.549  22.071  30.664  0.00  0.00    +0.211 HD
ENDBRANCH  46  47
ENDBRANCH  16  46
ENDBRANCH  12  16
ENDBRANCH  11  14
BRANCH  11  49
ATOM     49  CB  ILE A   5      12.005  25.439  24.820  0.00  0.00    +0.027 C 
ATOM     50  CG2 ILE A   5      10.934  26.127  25.641  0.00  0.00    +0.002 C 
BRANCH  49  51
ATOM     51  CG1 ILE A   5      13.071  26.430  24.338  0.00  0.00    +0.002 C 
ATOM     52  CD1 ILE A   5      12.532  27.525  23.445  0.00  0.00    +0.000 C 
ENDBRANCH  49  51
ENDBRANCH  11  49
ENDBRANCH   7  11
ENDBRANCH   6   8
BRANCH   6  53
ATOM     53  CB  ASP A   6      13.002  26.639  29.883  0.00  0.00    +0.143 C 
BRANCH  53  54
ATOM     54  CG  ASP A   6      12.183  27.705  29.159  0.00  0.00    +0.367 C 
ATOM     55  OD2 ASP A   6      11.249  28.265  29.777  0.00  0.00    -0.246 OA
ATOM     56  OD1 ASP A   6      12.473  27.987  27.975  0.00  0.00    -0.246 OA
ENDBRANCH  53  54
ENDBRANCH   6  53
ENDBRANCH   2   6
ENDBRANCH   1   4
BRANCH   1  57
ATOM     57  C   ARG A   7      16.551  22.023  28.742  0.00  0.00    +0.241 C 
ATOM     58  O   ARG A   7      17.556  21.373  29.021  0.00  0.00    -0.273 OA
ATOM     59  N   VAL A   8      16.228  22.344  27.494  0.00  0.00    -0.297 N 
ATOM     60  H   VAL A   8      15.464  23.030  27.326  0.00  0.00    +0.150 HD
BRANCH  59  61
ATOM     61  CA  VAL A   8      16.922  21.755  26.353  0.00  0.00    +0.149 C 
BRANCH  61  62
ATOM     62  C   VAL A   8      18.377  22.143  26.342  0.00  0.00    +0.241 C 
ATOM     63  O   VAL A   8      18.699  23.327  26.380  0.00  0.00    -0.273 OA
ATOM     64  N   GLY A   9      19.265  21.153  26.320  0.00  0.00    -0.295 N 
ATOM     65  H   GLY A   9      18.934  20.168  26.372  0.00  0.00    +0.150 HD
BRANCH  64  66
ATOM     66  CA  GLY A   9      20.691  21.424  26.225  0.00  0.00    +0.176 C 
BRANCH  66  67
ATOM     67  C   GLY A   9      21.362  21.658  27.572  0.00  0.00    +0.243 C 
ATOM     68  N   THR A  10      20.550  21.904  28.595  0.00  0.00    -0.295 N 
ATOM     69  H   THR A  10      19.522  21.836  28.452  0.00  0.00    +0.150 HD
ATOM     70  O   GLY A   9      22.588  21.609  27.693  0.00  0.00    -0.273 OA
BRANCH  68  71
ATOM     71  CA  THR A  10      21.061  22.269  29.920  0.00  0.00    +0.176 C 
BRANCH  71  72
ATOM     72  C   THR A  10      21.703  21.123  30.697  0.00  0.00    +0.243 C 
ATOM     73  O   THR A  10      22.490  21.379  31.599  0.00  0.00    -0.273 OA
ATOM     74  N   LYS A  11      21.354  19.877  30.367  0.00  0.00    -0.297 N 
ATOM     75  H   LYS A  11      20.731  19.732  29.547  0.00  0.00    +0.150 HD
BRANCH  74  76
ATOM     76  CA  LYS A  11      21.819  18.697  31.123  0.00  0.00    +0.149 C 
BRANCH  76  77
ATOM     77  C   LYS A  11      21.363  18.710  32.585  0.00  0.00    +0.241 C 
ATOM     78  O   LYS A  11      21.985  18.073  33.433  0.00  0.00    -0.273 OA
ATOM     79  N   SER A  12      20.281  19.428  32.879  0.00  0.00    -0.295 N 
ATOM     80  H   SER A  12      19.731  19.861  32.110  0.00  0.00    +0.150 HD
BRANCH  79  81
ATOM     81  CA  SER A  12      19.850  19.619  34.268  0.00  0.00    +0.178 C 
BRANCH  81  82
ATOM     82  C   SER A  12      18.734  18.655  34.672  0.00  0.00    +0.243 C 
ATOM     83  O   SER A  12      18.312  18.628  35.841  0.00  0.00    -0.273 OA
ATOM     84  N   GLY A  13      18.292  17.841  33.713  0.00  0.00    -0.295 N 
ATOM     85  H   GLY A  13      18.735  17.887  32.773  0.00  0.00    +0.150 HD
BRANCH  84  86
ATOM     86  CA  GLY A  13      17.211  16.890  33.935  0.00  0.00    +0.176 C 
BRANCH  86  87
ATOM     87  C   GLY A  13      16.049  17.222  33.025  0.00  0.00    +0.243 C 
ATOM     88  N   TYR A  14      15.173  16.253  32.786  0.00  0.00    -0.298 N 
ATOM     89  H   TYR A  14      15.355  15.297  33.153  0.00  0.00    +0.150 HD
ATOM     90  O   GLY A  13      15.961  18.343  32.524  0.00  0.00    -0.273 OA
BRANCH  88  91
ATOM     91  CA  TYR A  14      13.963  16.507  32.019  0.00  0.00    +0.141 C 
BRANCH  91  92
ATOM     92  C   TYR A  14      13.040  17.378  32.857  0.00  0.00    +0.227 C 
ATOM     93  O   TYR A  14      13.172  17.434  34.074  0.00  0.00    -0.286 OA
ENDBRANCH  91  92
BRANCH  91  94
ATOM     94  CB  TYR A  14      13.250  15.202  31.660  0.00  0.00    +0.054 C 
BRANCH  94  95
ATOM     95  CG  TYR A  14      13.981  14.342  30.655  0.00  0.00    -0.020 A 
ATOM     96  CD2 TYR A  14      14.810  13.309  31.070  0.00  0.00    -0.001 A 
ATOM     97  CE2 TYR A  14      15.484  12.511  30.149  0.00  0.00    +0.036 A 
ATOM     98  CZ  TYR A  14      15.329  12.741  28.794  0.00  0.00    +0.134 A 
ATOM     99  CE1 TYR A  14      14.524  13.767  28.355  0.00  0.00    +0.036 A 
ATOM    100  CD1 TYR A  14      13.855  14.570  29.292  0.00  0.00    -0.001 A 
BRANCH  98 101
ATOM    101  OH  TYR A  14      15.993  11.959  27.879  0.00  0.00    -0.506 OA
ATOM    102  HH  TYR A  14      15.768  12.261  26.963  0.00  0.00    +0.292 HD
ENDBRANCH  98 101
ENDBRANCH  94  95
ENDBRANCH  91  94
ENDBRANCH  88  91
ENDBRANCH  86  87
ENDBRANCH  84  86
ENDBRANCH  81  82
BRANCH  81 103
ATOM    103  CB  SER A  12      19.425  21.070  34.522  0.00  0.00    +0.166 C 
BRANCH 103 104
ATOM    104  OG  SER A  12      18.210  21.393  33.862  0.00  0.00    -0.380 OA
ATOM    105  H   SER A  12      18.323  21.270  32.886  0.00  0.00    +0.211 HD
ENDBRANCH 103 104
ENDBRANCH  81 103
ENDBRANCH  79  81
ENDBRANCH  76  77
BRANCH  76 106
ATOM    106  CB  LYS A  11      23.346  18.546  31.075  0.00  0.00    +0.029 C 
BRANCH 106 107
ATOM    107  CG  LYS A  11      23.920  17.980  29.788  0.00  0.00    +0.000 C 
BRANCH 107 108
ATOM    108  CD  LYS A  11      25.384  18.395  29.683  0.00  0.00    -0.024 C 
BRANCH 108 109
ATOM    109  CE  LYS A  11      25.968  18.135  28.309  0.00  0.00    -0.086 C 
BRANCH 109 110
ATOM    110  NZ  LYS A  11      27.270  18.850  28.116  0.00  0.00    +0.380 N 
ATOM    111  HZ1 LYS A  11      27.953  18.523  28.830  0.00  0.00    -0.089 HD
ATOM    112  HZ2 LYS A  11      27.121  19.874  28.220  0.00  0.00    -0.089 HD
ATOM    113  HZ3 LYS A  11      27.638  18.647  27.165  0.00  0.00    -0.089 HD
ENDBRANCH 109 110
ENDBRANCH 108 109
ENDBRANCH 107 108
ENDBRANCH 106 107
ENDBRANCH  76 106
ENDBRANCH  74  76
ENDBRANCH  71  72
BRANCH  71 114
ATOM    114  CB  THR A  10      19.946  22.839  30.799  0.00  0.00    +0.137 C 
ATOM    115  CG2 THR A  10      19.298  24.064  30.138  0.00  0.00    +0.034 C 
BRANCH 114 116
ATOM    116  OG1 THR A  10      18.947  21.833  30.997  0.00  0.00    -0.382 OA
ATOM    117  HG1 THR A  10      18.576  21.561  30.120  0.00  0.00    +0.210 HD
ENDBRANCH 114 116
ENDBRANCH  71 114
ENDBRANCH  68  71
ENDBRANCH  66  67
ENDBRANCH  64  66
ENDBRANCH  61  62
BRANCH  61 118
ATOM    118  CB  VAL A   8      16.286  22.201  25.025  0.00  0.00    +0.027 C 
ATOM    119  CG2 VAL A   8      14.893  21.599  24.898  0.00  0.00    +0.002 C 
ATOM    120  CG1 VAL A   8      17.183  21.826  23.844  0.00  0.00    +0.002 C 
ENDBRANCH  61 118
ENDBRANCH  59  61
ENDBRANCH   1  57
BRANCH   1 121
ATOM    121  CB  ARG A   7      14.762  21.317  30.312  0.00  0.00    +0.033 C 
BRANCH 121 122
ATOM    122  CG  ARG A   7      13.937  21.557  31.569  0.00  0.00    +0.045 C 
BRANCH 122 123
ATOM    123  CD  ARG A   7      14.819  21.648  32.789  0.00  0.00    +0.174 C 
BRANCH 123 124
ATOM    124  NE  ARG A   7      14.053  21.498  34.020  0.00  0.00    -0.265 N 
ATOM    125  CZ  ARG A   7      14.357  20.638  34.982  0.00  0.00    +0.342 C 
ATOM    126  NH2 ARG A   7      13.606  20.565  36.071  0.00  0.00    -0.292 N 
ATOM    127 HH21 ARG A   7      13.847  19.889  36.824  0.00  0.00    +0.255 HD
ATOM    128 HH22 ARG A   7      12.776  21.183  36.173  0.00  0.00    +0.255 HD
ATOM    129  NH1 ARG A   7      15.418  19.853  34.858  0.00  0.00    -0.292 N 
ATOM    130 HH11 ARG A   7      15.657  19.178  35.613  0.00  0.00    +0.255 HD
ATOM    131 HH12 ARG A   7      16.012  19.912  34.006  0.00  0.00    +0.255 HD
ATOM    132  HE  ARG A   7      13.217  22.102  34.152  0.00  0.00    +0.259 HD
ENDBRANCH 123 124
ENDBRANCH 122 123
ENDBRANCH 121 122
ENDBRANCH   1 121
TORSDOF 57
REMARK  Name = ../refined-set-2016/4ewn/4ewn_pocket.pdb
REMARK  196 active torsions:
REMARK  status: ('A' for Active; 'I' for Inactive)
REMARK    1  A    between atoms: _1  and  _3
REMARK    2  A    between atoms: _3  and  _4
REMARK    3  A    between atoms: _3  and  _6
REMARK    4  A    between atoms: _6  and  _7
REMARK    5  A    between atoms: _10  and  _12
REMARK    6  A    between atoms: _12  and  _13
REMARK    7  A    between atoms: _16  and  _18
REMARK    8  A    between atoms: _18  and  _19
REMARK    9  A    between atoms: _18  and  _21
REMARK   10  A    between atoms: _23  and  _25
REMARK   11  A    between atoms: _25  and  _26
REMARK   12  A    between atoms: _25  and  _28
REMARK   13  A    between atoms: _28  and  _29
REMARK   14  A    between atoms: _32  and  _34
REMARK   15  A    between atoms: _34  and  _35
REMARK   16  A    between atoms: _34  and  _37
REMARK   17  A    between atoms: _37  and  _38
REMARK   18  A    between atoms: _41  and  _43
REMARK   19  A    between atoms: _43  and  _44
REMARK   20  A    between atoms: _43  and  _46
REMARK   21  A    between atoms: _49  and  _51
REMARK   22  A    between atoms: _51  and  _52
REMARK   23  A    between atoms: _51  and  _54
REMARK   24  A    between atoms: _54  and  _55
REMARK   25  A    between atoms: _58  and  _60
REMARK   26  A    between atoms: _60  and  _61
REMARK   27  A    between atoms: _60  and  _63
REMARK   28  A    between atoms: _63  and  _64
REMARK   29  A    between atoms: _67  and  _69
REMARK   30  A    between atoms: _69  and  _70
REMARK   31  A    between atoms: _69  and  _72
REMARK   32  A    between atoms: _72  and  _73
REMARK   33  A    between atoms: _76  and  _78
REMARK   34  A    between atoms: _78  and  _79
REMARK   35  A    between atoms: _81  and  _83
REMARK   36  A    between atoms: _83  and  _84
REMARK   37  A    between atoms: _86  and  _88
REMARK   38  A    between atoms: _88  and  _89
REMARK   39  A    between atoms: _91  and  _93
REMARK   40  A    between atoms: _93  and  _94
REMARK   41  A    between atoms: _93  and  _96
REMARK   42  A    between atoms: _96  and  _97
REMARK   43  A    between atoms: _99  and  _101
REMARK   44  A    between atoms: _101  and  _102
REMARK   45  A    between atoms: _101  and  _104
REMARK   46  A    between atoms: _104  and  _105
REMARK   47  A    between atoms: _110  and  _112
REMARK   48  A    between atoms: _112  and  _113
REMARK   49  A    between atoms: _112  and  _115
REMARK   50  A    between atoms: _115  and  _116
REMARK   51  A    between atoms: _119  and  _121
REMARK   52  A    between atoms: _121  and  _122
REMARK   53  A    between atoms: _125  and  _127
REMARK   54  A    between atoms: _127  and  _128
REMARK   55  A    between atoms: _127  and  _130
REMARK   56  A    between atoms: _130  and  _131
REMARK   57  A    between atoms: _134  and  _136
REMARK   58  A    between atoms: _136  and  _137
REMARK   59  A    between atoms: _136  and  _139
REMARK   60  A    between atoms: _142  and  _144
REMARK   61  A    between atoms: _144  and  _145
REMARK   62  A    between atoms: _148  and  _150
REMARK   63  A    between atoms: _150  and  _151
REMARK   64  A    between atoms: _150  and  _153
REMARK   65  A    between atoms: _153  and  _154
REMARK   66  A    between atoms: _154  and  _155
REMARK   67  A    between atoms: _155  and  _156
REMARK   68  A    between atoms: _156  and  _157
REMARK   69  A    between atoms: _161  and  _163
REMARK   70  A    between atoms: _163  and  _164
REMARK   71  A    between atoms: _163  and  _166
REMARK   72  A    between atoms: _166  and  _167
REMARK   73  A    between atoms: _173  and  _175
REMARK   74  A    between atoms: _175  and  _176
REMARK   75  A    between atoms: _175  and  _178
REMARK   76  A    between atoms: _178  and  _179
REMARK   77  A    between atoms: _182  and  _184
REMARK   78  A    between atoms: _184  and  _185
REMARK   79  A    between atoms: _184  and  _187
REMARK   80  A    between atoms: _187  and  _188
REMARK   81  A    between atoms: _193  and  _194
REMARK   82  A    between atoms: _196  and  _198
REMARK   83  A    between atoms: _198  and  _199
REMARK   84  A    between atoms: _198  and  _201
REMARK   85  A    between atoms: _201  and  _202
REMARK   86  A    between atoms: _204  and  _206
REMARK   87  A    between atoms: _206  and  _207
REMARK   88  A    between atoms: _209  and  _211
REMARK   89  A    between atoms: _211  and  _212
REMARK   90  A    between atoms: _211  and  _214
REMARK   91  A    between atoms: _214  and  _215
REMARK   92  A    between atoms: _215  and  _216
REMARK   93  A    between atoms: _216  and  _217
REMARK   94  A    between atoms: _217  and  _218
REMARK   95  A    between atoms: _222  and  _224
REMARK   96  A    between atoms: _224  and  _225
REMARK   97  A    between atoms: _224  and  _227
REMARK   98  A    between atoms: _227  and  _228
REMARK   99  A    between atoms: _231  and  _233
REMARK  100  A    between atoms: _233  and  _234
REMARK  101  A    between atoms: _233  and  _236
REMARK  102  A    between atoms: _236  and  _237
REMARK  103  A    between atoms: _240  and  _242
REMARK  104  A    between atoms: _242  and  _243
REMARK  105  A    between atoms: _242  and  _245
REMARK  106  A    between atoms: _245  and  _246
REMARK  107  A    between atoms: _249  and  _251
REMARK  108  A    between atoms: _251  and  _252
REMARK  109  A    between atoms: _251  and  _254
REMARK  110  A    between atoms: _254  and  _255
REMARK  111  A    between atoms: _257  and  _259
REMARK  112  A    between atoms: _259  and  _260
REMARK  113  A    between atoms: _259  and  _262
REMARK  114  A    between atoms: _262  and  _263
REMARK  115  A    between atoms: _266  and  _268
REMARK  116  A    between atoms: _268  and  _269
REMARK  117  A    between atoms: _268  and  _271
REMARK  118  A    between atoms: _271  and  _272
REMARK  119  A    between atoms: _275  and  _277
REMARK  120  A    between atoms: _277  and  _278
REMARK  121  A    between atoms: _277  and  _280
REMARK  122  A    between atoms: _280  and  _281
REMARK  123  A    between atoms: _281  and  _282
REMARK  124  A    between atoms: _282  and  _283
REMARK  125  A    between atoms: _292  and  _294
REMARK  126  A    between atoms: _294  and  _295
REMARK  127  A    between atoms: _294  and  _297
REMARK  128  A    between atoms: _300  and  _302
REMARK  129  A    between atoms: _302  and  _303
REMARK  130  A    between atoms: _305  and  _307
REMARK  131  A    between atoms: _307  and  _308
REMARK  132  A    between atoms: _307  and  _310
REMARK  133  A    between atoms: _310  and  _311
REMARK  134  A    between atoms: _314  and  _316
REMARK  135  A    between atoms: _316  and  _317
REMARK  136  A    between atoms: _316  and  _319
REMARK  137  A    between atoms: _319  and  _320
REMARK  138  A    between atoms: _320  and  _321
REMARK  139  A    between atoms: _321  and  _322
REMARK  140  A    between atoms: _322  and  _323
REMARK  141  A    between atoms: _327  and  _329
REMARK  142  A    between atoms: _329  and  _330
REMARK  143  A    between atoms: _329  and  _332
REMARK  144  A    between atoms: _332  and  _333
REMARK  145  A    between atoms: _335  and  _337
REMARK  146  A    between atoms: _337  and  _338
REMARK  147  A    between atoms: _340  and  _342
REMARK  148  A    between atoms: _342  and  _343
REMARK  149  A    between atoms: _342  and  _345
REMARK  150  A    between atoms: _345  and  _346
REMARK  151  A    between atoms: _351  and  _352
REMARK  152  A    between atoms: _354  and  _356
REMARK  153  A    between atoms: _356  and  _357
REMARK  154  A    between atoms: _360  and  _362
REMARK  155  A    between atoms: _362  and  _363
REMARK  156  A    between atoms: _362  and  _365
REMARK  157  A    between atoms: _365  and  _366
REMARK  158  A    between atoms: _368  and  _370
REMARK  159  A    between atoms: _370  and  _371
REMARK  160  A    between atoms: _373  and  _375
REMARK  161  A    between atoms: _375  and  _376
REMARK  162  A    between atoms: _378  and  _380
REMARK  163  A    between atoms: _380  and  _381
REMARK  164  A    between atoms: _384  and  _386
REMARK  165  A    between atoms: _386  and  _387
REMARK  166  A    between atoms: _389  and  _391
REMARK  167  A    between atoms: _391  and  _392
REMARK  168  A    between atoms: _391  and  _394
REMARK  169  A    between atoms: _394  and  _395
REMARK  170  A    between atoms: _401  and  _403
REMARK  171  A    between atoms: _403  and  _404
REMARK  172  A    between atoms: _403  and  _406
REMARK  173  A    between atoms: _406  and  _407
REMARK  174  A    between atoms: _410  and  _412
REMARK  175  A    between atoms: _412  and  _413
REMARK  176  A    between atoms: _416  and  _418
REMARK  177  A    between atoms: _418  and  _419
REMARK  178  A    between atoms: _422  and  _424
REMARK  179  A    between atoms: _424  and  _425
REMARK  180  A    between atoms: _424  and  _427
REMARK  181  A    between atoms: _427  and  _428
REMARK  182  A    between atoms: _430  and  _432
REMARK  183  A    between atoms: _432  and  _433
REMARK  184  A    between atoms: _432  and  _435
REMARK  185  A    between atoms: _438  and  _440
REMARK  186  A    between atoms: _440  and  _441
REMARK  187  A    between atoms: _440  and  _443
REMARK  188  A    between atoms: _443  and  _444
REMARK  189  A    between atoms: _450  and  _452
REMARK  190  A    between atoms: _452  and  _453
REMARK  191  A    between atoms: _452  and  _455
REMARK  192  A    between atoms: _455  and  _456
REMARK  193  A    between atoms: _461  and  _463
REMARK  194  A    between atoms: _463  and  _464
REMARK  195  A    between atoms: _463  and  _466
REMARK  196  A    between atoms: _466  and  _467
REMARK                            x       y       z     vdW  Elec       q    Type
REMARK                         _______ _______ _______ _____ _____    ______ ____
ROOT
ATOM      1  C   GLY A   3      15.767  18.056  27.884  0.00  0.00    +0.243 C 
ATOM      2  O   GLY A   3      14.946  17.886  28.785  0.00  0.00    -0.273 OA
ATOM      3  N   GLY A   4      17.064  18.141  28.101  0.00  0.00    -0.295 N 
ATOM      4  H   GLY A   4      17.727  18.140  27.300  0.00  0.00    +0.150 HD
ENDROOT
BRANCH   1   5
ATOM      5  CA  GLY A   3      15.325  18.149  26.440  0.00  0.00    +0.176 C 
BRANCH   5   8
ATOM      6  C   SER A   2      13.321  16.901  25.899  0.00  0.00    +0.243 C 
ATOM      7  O   SER A   2      12.589  17.840  26.200  0.00  0.00    -0.273 OA
ATOM      8  N   GLY A   3      14.645  16.949  26.009  0.00  0.00    -0.295 N 
ATOM      9  H   GLY A   3      15.205  16.103  25.779  0.00  0.00    +0.150 HD
BRANCH   6  10
ATOM     10  CA  SER A   2      12.738  15.615  25.331  0.00  0.00    +0.178 C 
BRANCH  10  12
ATOM     11  C   ALA A   1      11.587  13.696  26.273  0.00  0.00    +0.238 C 
ATOM     12  N   SER A   2      11.694  15.014  26.150  0.00  0.00    -0.295 N 
ATOM     13  H   SER A   2      11.019  15.629  26.648  0.00  0.00    +0.150 HD
ATOM     14  O   ALA A   1      12.424  12.895  25.808  0.00  0.00    -0.274 OA
BRANCH  11  15
ATOM     15  CA  ALA A   1      10.385  13.204  27.062  0.00  0.00    +0.145 C 
ATOM     16  CB  ALA A   1      10.812  12.759  28.433  0.00  0.00    +0.028 C 
BRANCH  15  17
ATOM     17  N   ALA A   1       9.729  12.115  26.346  0.00  0.00    -0.238 NA
ATOM     18  H   ALA A   1       9.844  11.137  26.681  0.00  0.00    +0.142 HD
ENDBRANCH  15  17
ENDBRANCH  11  15
ENDBRANCH  10  12
BRANCH  10  19
ATOM     19  CB  SER A   2      12.162  15.900  23.940  0.00  0.00    +0.166 C 
BRANCH  19  20
ATOM     20  OG  SER A   2      13.140  16.481  23.101  0.00  0.00    -0.380 OA
ATOM     21  H   SER A   2      13.451  17.333  23.499  0.00  0.00    +0.211 HD
ENDBRANCH  19  20
ENDBRANCH  10  19
ENDBRANCH   6  10
ENDBRANCH   5   8
ENDBRANCH   1   5
BRANCH   3  22
ATOM     22  CA  GLY A   4      17.564  18.235  29.455  0.00  0.00    +0.176 C 
BRANCH  22  23
ATOM     23  C   GLY A   4      18.396  17.079  29.966  0.00  0.00    +0.243 C 
ATOM     24  O   GLY A   4      19.152  17.274  30.901  0.00  0.00    -0.273 OA
ATOM     25  N   ALA A   5      18.275  15.889  29.378  0.00  0.00    -0.297 N 
ATOM     26  H   ALA A   5      17.693  15.792  28.522  0.00  0.00    +0.150 HD
BRANCH  25  27
ATOM     27  CA  ALA A   5      18.960  14.714  29.934  0.00  0.00    +0.149 C 
ATOM     28  CB  ALA A   5      18.734  13.479  29.057  0.00  0.00    +0.031 C 
BRANCH  27  29
ATOM     29  C   ALA A   5      20.439  14.976  30.129  0.00  0.00    +0.241 C 
ATOM     30  N   GLY A   6      20.941  14.615  31.308  0.00  0.00    -0.296 N 
ATOM     31  H   GLY A   6      20.339  14.104  31.985  0.00  0.00    +0.150 HD
ATOM     32  O   ALA A   5      21.109  15.547  29.255  0.00  0.00    -0.273 OA
BRANCH  30  33
ATOM     33  CA  GLY A   6      22.315  14.923  31.664  0.00  0.00    +0.163 C 
BRANCH  33  34
ATOM     34  C   GLY A   6      22.983  13.715  32.295  0.00  0.00    +0.229 C 
ATOM     35  O   GLY A   6      24.184  13.524  32.154  0.00  0.00    -0.286 OA
ENDBRANCH  33  34
ENDBRANCH  30  33
ENDBRANCH  27  29
ENDBRANCH  25  27
ENDBRANCH  22  23
ENDBRANCH   3  22
TORSDOF 14
REMARK  Name = ../refined-set-2016/4ewn/4ewn_pocket.pdb
REMARK  196 active torsions:
REMARK  status: ('A' for Active; 'I' for Inactive)
REMARK    1  A    between atoms: _1  and  _3
REMARK    2  A    between atoms: _3  and  _4
REMARK    3  A    between atoms: _3  and  _6
REMARK    4  A    between atoms: _6  and  _7
REMARK    5  A    between atoms: _10  and  _12
REMARK    6  A    between atoms: _12  and  _13
REMARK    7  A    between atoms: _16  and  _18
REMARK    8  A    between atoms: _18  and  _19
REMARK    9  A    between atoms: _18  and  _21
REMARK   10  A    between atoms: _23  and  _25
REMARK   11  A    between atoms: _25  and  _26
REMARK   12  A    between atoms: _25  and  _28
REMARK   13  A    between atoms: _28  and  _29
REMARK   14  A    between atoms: _32  and  _34
REMARK   15  A    between atoms: _34  and  _35
REMARK   16  A    between atoms: _34  and  _37
REMARK   17  A    between atoms: _37  and  _38
REMARK   18  A    between atoms: _41  and  _43
REMARK   19  A    between atoms: _43  and  _44
REMARK   20  A    between atoms: _43  and  _46
REMARK   21  A    between atoms: _49  and  _51
REMARK   22  A    between atoms: _51  and  _52
REMARK   23  A    between atoms: _51  and  _54
REMARK   24  A    between atoms: _54  and  _55
REMARK   25  A    between atoms: _58  and  _60
REMARK   26  A    between atoms: _60  and  _61
REMARK   27  A    between atoms: _60  and  _63
REMARK   28  A    between atoms: _63  and  _64
REMARK   29  A    between atoms: _67  and  _69
REMARK   30  A    between atoms: _69  and  _70
REMARK   31  A    between atoms: _69  and  _72
REMARK   32  A    between atoms: _72  and  _73
REMARK   33  A    between atoms: _76  and  _78
REMARK   34  A    between atoms: _78  and  _79
REMARK   35  A    between atoms: _81  and  _83
REMARK   36  A    between atoms: _83  and  _84
REMARK   37  A    between atoms: _86  and  _88
REMARK   38  A    between atoms: _88  and  _89
REMARK   39  A    between atoms: _91  and  _93
REMARK   40  A    between atoms: _93  and  _94
REMARK   41  A    between atoms: _93  and  _96
REMARK   42  A    between atoms: _96  and  _97
REMARK   43  A    between atoms: _99  and  _101
REMARK   44  A    between atoms: _101  and  _102
REMARK   45  A    between atoms: _101  and  _104
REMARK   46  A    between atoms: _104  and  _105
REMARK   47  A    between atoms: _110  and  _112
REMARK   48  A    between atoms: _112  and  _113
REMARK   49  A    between atoms: _112  and  _115
REMARK   50  A    between atoms: _115  and  _116
REMARK   51  A    between atoms: _119  and  _121
REMARK   52  A    between atoms: _121  and  _122
REMARK   53  A    between atoms: _125  and  _127
REMARK   54  A    between atoms: _127  and  _128
REMARK   55  A    between atoms: _127  and  _130
REMARK   56  A    between atoms: _130  and  _131
REMARK   57  A    between atoms: _134  and  _136
REMARK   58  A    between atoms: _136  and  _137
REMARK   59  A    between atoms: _136  and  _139
REMARK   60  A    between atoms: _142  and  _144
REMARK   61  A    between atoms: _144  and  _145
REMARK   62  A    between atoms: _148  and  _150
REMARK   63  A    between atoms: _150  and  _151
REMARK   64  A    between atoms: _150  and  _153
REMARK   65  A    between atoms: _153  and  _154
REMARK   66  A    between atoms: _154  and  _155
REMARK   67  A    between atoms: _155  and  _156
REMARK   68  A    between atoms: _156  and  _157
REMARK   69  A    between atoms: _161  and  _163
REMARK   70  A    between atoms: _163  and  _164
REMARK   71  A    between atoms: _163  and  _166
REMARK   72  A    between atoms: _166  and  _167
REMARK   73  A    between atoms: _173  and  _175
REMARK   74  A    between atoms: _175  and  _176
REMARK   75  A    between atoms: _175  and  _178
REMARK   76  A    between atoms: _178  and  _179
REMARK   77  A    between atoms: _182  and  _184
REMARK   78  A    between atoms: _184  and  _185
REMARK   79  A    between atoms: _184  and  _187
REMARK   80  A    between atoms: _187  and  _188
REMARK   81  A    between atoms: _193  and  _194
REMARK   82  A    between atoms: _196  and  _198
REMARK   83  A    between atoms: _198  and  _199
REMARK   84  A    between atoms: _198  and  _201
REMARK   85  A    between atoms: _201  and  _202
REMARK   86  A    between atoms: _204  and  _206
REMARK   87  A    between atoms: _206  and  _207
REMARK   88  A    between atoms: _209  and  _211
REMARK   89  A    between atoms: _211  and  _212
REMARK   90  A    between atoms: _211  and  _214
REMARK   91  A    between atoms: _214  and  _215
REMARK   92  A    between atoms: _215  and  _216
REMARK   93  A    between atoms: _216  and  _217
REMARK   94  A    between atoms: _217  and  _218
REMARK   95  A    between atoms: _222  and  _224
REMARK   96  A    between atoms: _224  and  _225
REMARK   97  A    between atoms: _224  and  _227
REMARK   98  A    between atoms: _227  and  _228
REMARK   99  A    between atoms: _231  and  _233
REMARK  100  A    between atoms: _233  and  _234
REMARK  101  A    between atoms: _233  and  _236
REMARK  102  A    between atoms: _236  and  _237
REMARK  103  A    between atoms: _240  and  _242
REMARK  104  A    between atoms: _242  and  _243
REMARK  105  A    between atoms: _242  and  _245
REMARK  106  A    between atoms: _245  and  _246
REMARK  107  A    between atoms: _249  and  _251
REMARK  108  A    between atoms: _251  and  _252
REMARK  109  A    between atoms: _251  and  _254
REMARK  110  A    between atoms: _254  and  _255
REMARK  111  A    between atoms: _257  and  _259
REMARK  112  A    between atoms: _259  and  _260
REMARK  113  A    between atoms: _259  and  _262
REMARK  114  A    between atoms: _262  and  _263
REMARK  115  A    between atoms: _266  and  _268
REMARK  116  A    between atoms: _268  and  _269
REMARK  117  A    between atoms: _268  and  _271
REMARK  118  A    between atoms: _271  and  _272
REMARK  119  A    between atoms: _275  and  _277
REMARK  120  A    between atoms: _277  and  _278
REMARK  121  A    between atoms: _277  and  _280
REMARK  122  A    between atoms: _280  and  _281
REMARK  123  A    between atoms: _281  and  _282
REMARK  124  A    between atoms: _282  and  _283
REMARK  125  A    between atoms: _292  and  _294
REMARK  126  A    between atoms: _294  and  _295
REMARK  127  A    between atoms: _294  and  _297
REMARK  128  A    between atoms: _300  and  _302
REMARK  129  A    between atoms: _302  and  _303
REMARK  130  A    between atoms: _305  and  _307
REMARK  131  A    between atoms: _307  and  _308
REMARK  132  A    between atoms: _307  and  _310
REMARK  133  A    between atoms: _310  and  _311
REMARK  134  A    between atoms: _314  and  _316
REMARK  135  A    between atoms: _316  and  _317
REMARK  136  A    between atoms: _316  and  _319
REMARK  137  A    between atoms: _319  and  _320
REMARK  138  A    between atoms: _320  and  _321
REMARK  139  A    between atoms: _321  and  _322
REMARK  140  A    between atoms: _322  and  _323
REMARK  141  A    between atoms: _327  and  _329
REMARK  142  A    between atoms: _329  and  _330
REMARK  143  A    between atoms: _329  and  _332
REMARK  144  A    between atoms: _332  and  _333
REMARK  145  A    between atoms: _335  and  _337
REMARK  146  A    between atoms: _337  and  _338
REMARK  147  A    between atoms: _340  and  _342
REMARK  148  A    between atoms: _342  and  _343
REMARK  149  A    between atoms: _342  and  _345
REMARK  150  A    between atoms: _345  and  _346
REMARK  151  A    between atoms: _351  and  _352
REMARK  152  A    between atoms: _354  and  _356
REMARK  153  A    between atoms: _356  and  _357
REMARK  154  A    between atoms: _360  and  _362
REMARK  155  A    between atoms: _362  and  _363
REMARK  156  A    between atoms: _362  and  _365
REMARK  157  A    between atoms: _365  and  _366
REMARK  158  A    between atoms: _368  and  _370
REMARK  159  A    between atoms: _370  and  _371
REMARK  160  A    between atoms: _373  and  _375
REMARK  161  A    between atoms: _375  and  _376
REMARK  162  A    between atoms: _378  and  _380
REMARK  163  A    between atoms: _380  and  _381
REMARK  164  A    between atoms: _384  and  _386
REMARK  165  A    between atoms: _386  and  _387
REMARK  166  A    between atoms: _389  and  _391
REMARK  167  A    between atoms: _391  and  _392
REMARK  168  A    between atoms: _391  and  _394
REMARK  169  A    between atoms: _394  and  _395
REMARK  170  A    between atoms: _401  and  _403
REMARK  171  A    between atoms: _403  and  _404
REMARK  172  A    between atoms: _403  and  _406
REMARK  173  A    between atoms: _406  and  _407
REMARK  174  A    between atoms: _410  and  _412
REMARK  175  A    between atoms: _412  and  _413
REMARK  176  A    between atoms: _416  and  _418
REMARK  177  A    between atoms: _418  and  _419
REMARK  178  A    between atoms: _422  and  _424
REMARK  179  A    between atoms: _424  and  _425
REMARK  180  A    between atoms: _424  and  _427
REMARK  181  A    between atoms: _427  and  _428
REMARK  182  A    between atoms: _430  and  _432
REMARK  183  A    between atoms: _432  and  _433
REMARK  184  A    between atoms: _432  and  _435
REMARK  185  A    between atoms: _438  and  _440
REMARK  186  A    between atoms: _440  and  _441
REMARK  187  A    between atoms: _440  and  _443
REMARK  188  A    between atoms: _443  and  _444
REMARK  189  A    between atoms: _450  and  _452
REMARK  190  A    between atoms: _452  and  _453
REMARK  191  A    between atoms: _452  and  _455
REMARK  192  A    between atoms: _455  and  _456
REMARK  193  A    between atoms: _461  and  _463
REMARK  194  A    between atoms: _463  and  _464
REMARK  195  A    between atoms: _463  and  _466
REMARK  196  A    between atoms: _466  and  _467
REMARK                            x       y       z     vdW  Elec       q    Type
REMARK                         _______ _______ _______ _____ _____    ______ ____
ROOT
ATOM      1  CB  PHE A   1      16.877   7.952  31.754  0.00  0.00    +0.051 C 
ENDROOT
BRANCH   1   2
ATOM      2  CG  PHE A   1      17.655   8.560  30.597  0.00  0.00    -0.020 A 
ATOM      3  CD2 PHE A   1      18.871   9.190  30.818  0.00  0.00    -0.004 A 
ATOM      4  CE2 PHE A   1      19.598   9.759  29.761  0.00  0.00    -0.000 A 
ATOM      5  CZ  PHE A   1      19.096   9.704  28.481  0.00  0.00    -0.000 A 
ATOM      6  CE1 PHE A   1      17.876   9.075  28.240  0.00  0.00    -0.000 A 
ATOM      7  CD1 PHE A   1      17.160   8.511  29.300  0.00  0.00    -0.004 A 
ENDBRANCH   1   2
BRANCH   1   8
ATOM      8  CA  PHE A   1      16.092   8.987  32.574  0.00  0.00    +0.137 C 
BRANCH   8   9
ATOM      9  N   PHE A   1      16.980   9.843  33.377  0.00  0.00    -0.239 NA
ATOM     10  H   PHE A   1      17.979   9.584  33.508  0.00  0.00    +0.142 HD
ENDBRANCH   8   9
BRANCH   8  11
ATOM     11  C   PHE A   1      15.083   8.306  33.481  0.00  0.00    +0.224 C 
ATOM     12  O   PHE A   1      13.915   8.177  33.130  0.00  0.00    -0.287 OA
ENDBRANCH   8  11
ENDBRANCH   1   8
TORSDOF 4
REMARK  Name = ../refined-set-2016/4ewn/4ewn_pocket.pdb
REMARK  196 active torsions:
REMARK  status: ('A' for Active; 'I' for Inactive)
REMARK    1  A    between atoms: _1  and  _3
REMARK    2  A    between atoms: _3  and  _4
REMARK    3  A    between atoms: _3  and  _6
REMARK    4  A    between atoms: _6  and  _7
REMARK    5  A    between atoms: _10  and  _12
REMARK    6  A    between atoms: _12  and  _13
REMARK    7  A    between atoms: _16  and  _18
REMARK    8  A    between atoms: _18  and  _19
REMARK    9  A    between atoms: _18  and  _21
REMARK   10  A    between atoms: _23  and  _25
REMARK   11  A    between atoms: _25  and  _26
REMARK   12  A    between atoms: _25  and  _28
REMARK   13  A    between atoms: _28  and  _29
REMARK   14  A    between atoms: _32  and  _34
REMARK   15  A    between atoms: _34  and  _35
REMARK   16  A    between atoms: _34  and  _37
REMARK   17  A    between atoms: _37  and  _38
REMARK   18  A    between atoms: _41  and  _43
REMARK   19  A    between atoms: _43  and  _44
REMARK   20  A    between atoms: _43  and  _46
REMARK   21  A    between atoms: _49  and  _51
REMARK   22  A    between atoms: _51  and  _52
REMARK   23  A    between atoms: _51  and  _54
REMARK   24  A    between atoms: _54  and  _55
REMARK   25  A    between atoms: _58  and  _60
REMARK   26  A    between atoms: _60  and  _61
REMARK   27  A    between atoms: _60  and  _63
REMARK   28  A    between atoms: _63  and  _64
REMARK   29  A    between atoms: _67  and  _69
REMARK   30  A    between atoms: _69  and  _70
REMARK   31  A    between atoms: _69  and  _72
REMARK   32  A    between atoms: _72  and  _73
REMARK   33  A    between atoms: _76  and  _78
REMARK   34  A    between atoms: _78  and  _79
REMARK   35  A    between atoms: _81  and  _83
REMARK   36  A    between atoms: _83  and  _84
REMARK   37  A    between atoms: _86  and  _88
REMARK   38  A    between atoms: _88  and  _89
REMARK   39  A    between atoms: _91  and  _93
REMARK   40  A    between atoms: _93  and  _94
REMARK   41  A    between atoms: _93  and  _96
REMARK   42  A    between atoms: _96  and  _97
REMARK   43  A    between atoms: _99  and  _101
REMARK   44  A    between atoms: _101  and  _102
REMARK   45  A    between atoms: _101  and  _104
REMARK   46  A    between atoms: _104  and  _105
REMARK   47  A    between atoms: _110  and  _112
REMARK   48  A    between atoms: _112  and  _113
REMARK   49  A    between atoms: _112  and  _115
REMARK   50  A    between atoms: _115  and  _116
REMARK   51  A    between atoms: _119  and  _121
REMARK   52  A    between atoms: _121  and  _122
REMARK   53  A    between atoms: _125  and  _127
REMARK   54  A    between atoms: _127  and  _128
REMARK   55  A    between atoms: _127  and  _130
REMARK   56  A    between atoms: _130  and  _131
REMARK   57  A    between atoms: _134  and  _136
REMARK   58  A    between atoms: _136  and  _137
REMARK   59  A    between atoms: _136  and  _139
REMARK   60  A    between atoms: _142  and  _144
REMARK   61  A    between atoms: _144  and  _145
REMARK   62  A    between atoms: _148  and  _150
REMARK   63  A    between atoms: _150  and  _151
REMARK   64  A    between atoms: _150  and  _153
REMARK   65  A    between atoms: _153  and  _154
REMARK   66  A    between atoms: _154  and  _155
REMARK   67  A    between atoms: _155  and  _156
REMARK   68  A    between atoms: _156  and  _157
REMARK   69  A    between atoms: _161  and  _163
REMARK   70  A    between atoms: _163  and  _164
REMARK   71  A    between atoms: _163  and  _166
REMARK   72  A    between atoms: _166  and  _167
REMARK   73  A    between atoms: _173  and  _175
REMARK   74  A    between atoms: _175  and  _176
REMARK   75  A    between atoms: _175  and  _178
REMARK   76  A    between atoms: _178  and  _179
REMARK   77  A    between atoms: _182  and  _184
REMARK   78  A    between atoms: _184  and  _185
REMARK   79  A    between atoms: _184  and  _187
REMARK   80  A    between atoms: _187  and  _188
REMARK   81  A    between atoms: _193  and  _194
REMARK   82  A    between atoms: _196  and  _198
REMARK   83  A    between atoms: _198  and  _199
REMARK   84  A    between atoms: _198  and  _201
REMARK   85  A    between atoms: _201  and  _202
REMARK   86  A    between atoms: _204  and  _206
REMARK   87  A    between atoms: _206  and  _207
REMARK   88  A    between atoms: _209  and  _211
REMARK   89  A    between atoms: _211  and  _212
REMARK   90  A    between atoms: _211  and  _214
REMARK   91  A    between atoms: _214  and  _215
REMARK   92  A    between atoms: _215  and  _216
REMARK   93  A    between atoms: _216  and  _217
REMARK   94  A    between atoms: _217  and  _218
REMARK   95  A    between atoms: _222  and  _224
REMARK   96  A    between atoms: _224  and  _225
REMARK   97  A    between atoms: _224  and  _227
REMARK   98  A    between atoms: _227  and  _228
REMARK   99  A    between atoms: _231  and  _233
REMARK  100  A    between atoms: _233  and  _234
REMARK  101  A    between atoms: _233  and  _236
REMARK  102  A    between atoms: _236  and  _237
REMARK  103  A    between atoms: _240  and  _242
REMARK  104  A    between atoms: _242  and  _243
REMARK  105  A    between atoms: _242  and  _245
REMARK  106  A    between atoms: _245  and  _246
REMARK  107  A    between atoms: _249  and  _251
REMARK  108  A    between atoms: _251  and  _252
REMARK  109  A    between atoms: _251  and  _254
REMARK  110  A    between atoms: _254  and  _255
REMARK  111  A    between atoms: _257  and  _259
REMARK  112  A    between atoms: _259  and  _260
REMARK  113  A    between atoms: _259  and  _262
REMARK  114  A    between atoms: _262  and  _263
REMARK  115  A    between atoms: _266  and  _268
REMARK  116  A    between atoms: _268  and  _269
REMARK  117  A    between atoms: _268  and  _271
REMARK  118  A    between atoms: _271  and  _272
REMARK  119  A    between atoms: _275  and  _277
REMARK  120  A    between atoms: _277  and  _278
REMARK  121  A    between atoms: _277  and  _280
REMARK  122  A    between atoms: _280  and  _281
REMARK  123  A    between atoms: _281  and  _282
REMARK  124  A    between atoms: _282  and  _283
REMARK  125  A    between atoms: _292  and  _294
REMARK  126  A    between atoms: _294  and  _295
REMARK  127  A    between atoms: _294  and  _297
REMARK  128  A    between atoms: _300  and  _302
REMARK  129  A    between atoms: _302  and  _303
REMARK  130  A    between atoms: _305  and  _307
REMARK  131  A    between atoms: _307  and  _308
REMARK  132  A    between atoms: _307  and  _310
REMARK  133  A    between atoms: _310  and  _311
REMARK  134  A    between atoms: _314  and  _316
REMARK  135  A    between atoms: _316  and  _317
REMARK  136  A    between atoms: _316  and  _319
REMARK  137  A    between atoms: _319  and  _320
REMARK  138  A    between atoms: _320  and  _321
REMARK  139  A    between atoms: _321  and  _322
REMARK  140  A    between atoms: _322  and  _323
REMARK  141  A    between atoms: _327  and  _329
REMARK  142  A    between atoms: _329  and  _330
REMARK  143  A    between atoms: _329  and  _332
REMARK  144  A    between atoms: _332  and  _333
REMARK  145  A    between atoms: _335  and  _337
REMARK  146  A    between atoms: _337  and  _338
REMARK  147  A    between atoms: _340  and  _342
REMARK  148  A    between atoms: _342  and  _343
REMARK  149  A    between atoms: _342  and  _345
REMARK  150  A    between atoms: _345  and  _346
REMARK  151  A    between atoms: _351  and  _352
REMARK  152  A    between atoms: _354  and  _356
REMARK  153  A    between atoms: _356  and  _357
REMARK  154  A    between atoms: _360  and  _362
REMARK  155  A    between atoms: _362  and  _363
REMARK  156  A    between atoms: _362  and  _365
REMARK  157  A    between atoms: _365  and  _366
REMARK  158  A    between atoms: _368  and  _370
REMARK  159  A    between atoms: _370  and  _371
REMARK  160  A    between atoms: _373  and  _375
REMARK  161  A    between atoms: _375  and  _376
REMARK  162  A    between atoms: _378  and  _380
REMARK  163  A    between atoms: _380  and  _381
REMARK  164  A    between atoms: _384  and  _386
REMARK  165  A    between atoms: _386  and  _387
REMARK  166  A    between atoms: _389  and  _391
REMARK  167  A    between atoms: _391  and  _392
REMARK  168  A    between atoms: _391  and  _394
REMARK  169  A    between atoms: _394  and  _395
REMARK  170  A    between atoms: _401  and  _403
REMARK  171  A    between atoms: _403  and  _404
REMARK  172  A    between atoms: _403  and  _406
REMARK  173  A    between atoms: _406  and  _407
REMARK  174  A    between atoms: _410  and  _412
REMARK  175  A    between atoms: _412  and  _413
REMARK  176  A    between atoms: _416  and  _418
REMARK  177  A    between atoms: _418  and  _419
REMARK  178  A    between atoms: _422  and  _424
REMARK  179  A    between atoms: _424  and  _425
REMARK  180  A    between atoms: _424  and  _427
REMARK  181  A    between atoms: _427  and  _428
REMARK  182  A    between atoms: _430  and  _432
REMARK  183  A    between atoms: _432  and  _433
REMARK  184  A    between atoms: _432  and  _435
REMARK  185  A    between atoms: _438  and  _440
REMARK  186  A    between atoms: _440  and  _441
REMARK  187  A    between atoms: _440  and  _443
REMARK  188  A    between atoms: _443  and  _444
REMARK  189  A    between atoms: _450  and  _452
REMARK  190  A    between atoms: _452  and  _453
REMARK  191  A    between atoms: _452  and  _455
REMARK  192  A    between atoms: _455  and  _456
REMARK  193  A    between atoms: _461  and  _463
REMARK  194  A    between atoms: _463  and  _464
REMARK  195  A    between atoms: _463  and  _466
REMARK  196  A    between atoms: _466  and  _467
REMARK                            x       y       z     vdW  Elec       q    Type
REMARK                         _______ _______ _______ _____ _____    ______ ____
ROOT
ATOM      1  C   VAL A   5      25.023  11.789  25.447  0.00  0.00    +0.241 C 
ATOM      2  O   VAL A   5      25.818  10.940  25.859  0.00  0.00    -0.273 OA
ATOM      3  N   PHE A   6      24.475  11.739  24.238  0.00  0.00    -0.297 N 
ATOM      4  H   PHE A   6      23.742  12.431  23.983  0.00  0.00    +0.150 HD
ENDROOT
BRANCH   3   5
ATOM      5  CA  PHE A   6      24.879  10.734  23.261  0.00  0.00    +0.153 C 
BRANCH   5   6
ATOM      6  C   PHE A   6      25.860  11.355  22.270  0.00  0.00    +0.241 C 
ATOM      7  N   HIS A   7      25.680  12.646  21.993  0.00  0.00    -0.297 N 
ATOM      8  H   HIS A   7      24.856  13.135  22.398  0.00  0.00    +0.150 HD
ATOM      9  O   PHE A   6      26.770  10.681  21.791  0.00  0.00    -0.273 OA
BRANCH   7  10
ATOM     10  CA  HIS A   7      26.602  13.403  21.137  0.00  0.00    +0.155 C 
BRANCH  10  11
ATOM     11  C   HIS A   7      27.940  13.628  21.841  0.00  0.00    +0.241 C 
ATOM     12  N   PHE A   8      27.871  14.119  23.076  0.00  0.00    -0.298 N 
ATOM     13  H   PHE A   8      26.938  14.355  23.471  0.00  0.00    +0.150 HD
ATOM     14  O   HIS A   7      29.004  13.365  21.277  0.00  0.00    -0.273 OA
BRANCH  12  15
ATOM     15  CA  PHE A   8      29.055  14.337  23.893  0.00  0.00    +0.141 C 
BRANCH  15  16
ATOM     16  C   PHE A   8      29.530  13.038  24.576  0.00  0.00    +0.227 C 
ATOM     17  O   PHE A   8      30.386  13.083  25.463  0.00  0.00    -0.286 OA
ENDBRANCH  15  16
BRANCH  15  18
ATOM     18  CB  PHE A   8      28.803  15.471  24.906  0.00  0.00    +0.054 C 
BRANCH  18  19
ATOM     19  CG  PHE A   8      28.479  16.810  24.267  0.00  0.00    -0.020 A 
ATOM     20  CD2 PHE A   8      27.482  17.628  24.790  0.00  0.00    -0.004 A 
ATOM     21  CE2 PHE A   8      27.188  18.853  24.204  0.00  0.00    -0.000 A 
ATOM     22  CZ  PHE A   8      27.892  19.271  23.090  0.00  0.00    -0.000 A 
ATOM     23  CE1 PHE A   8      28.885  18.469  22.561  0.00  0.00    -0.000 A 
ATOM     24  CD1 PHE A   8      29.174  17.248  23.148  0.00  0.00    -0.004 A 
ENDBRANCH  18  19
ENDBRANCH  15  18
ENDBRANCH  12  15
ENDBRANCH  10  11
BRANCH  10  25
ATOM     25  CB  HIS A   7      25.988  14.754  20.751  0.00  0.00    +0.076 C 
BRANCH  25  26
ATOM     26  CG  HIS A   7      26.728  15.472  19.662  0.00  0.00    +0.082 A 
ATOM     27  ND1 HIS A   7      26.954  16.832  19.686  0.00  0.00    -0.227 NA
ATOM     28  CE1 HIS A   7      27.620  17.187  18.602  0.00  0.00    +0.199 A 
ATOM     29  NE2 HIS A   7      27.830  16.106  17.871  0.00  0.00    -0.221 NA
ATOM     30  CD2 HIS A   7      27.280  15.021  18.510  0.00  0.00    +0.115 A 
ENDBRANCH  25  26
ENDBRANCH  10  25
ENDBRANCH   7  10
ENDBRANCH   5   6
BRANCH   5  31
ATOM     31  CB  PHE A   6      23.651  10.133  22.555  0.00  0.00    +0.055 C 
BRANCH  31  32
ATOM     32  CG  PHE A   6      22.731   9.386  23.489  0.00  0.00    -0.020 A 
ATOM     33  CD2 PHE A   6      23.253   8.540  24.460  0.00  0.00    -0.004 A 
ATOM     34  CE2 PHE A   6      22.422   7.852  25.343  0.00  0.00    -0.000 A 
ATOM     35  CZ  PHE A   6      21.053   8.012  25.267  0.00  0.00    -0.000 A 
ATOM     36  CE1 PHE A   6      20.514   8.861  24.305  0.00  0.00    -0.000 A 
ATOM     37  CD1 PHE A   6      21.357   9.548  23.422  0.00  0.00    -0.004 A 
ENDBRANCH  31  32
ENDBRANCH   5  31
ENDBRANCH   3   5
BRANCH   1  38
ATOM     38  CA  VAL A   5      24.592  12.950  26.340  0.00  0.00    +0.149 C 
BRANCH  38  40
ATOM     39  C   SER A   4      24.480  14.847  24.812  0.00  0.00    +0.243 C 
ATOM     40  N   VAL A   5      23.860  14.007  25.640  0.00  0.00    -0.297 N 
ATOM     41  H   VAL A   5      22.836  14.104  25.792  0.00  0.00    +0.150 HD
ATOM     42  O   SER A   4      25.658  14.715  24.501  0.00  0.00    -0.273 OA
BRANCH  39  43
ATOM     43  CA  SER A   4      23.662  16.009  24.239  0.00  0.00    +0.178 C 
BRANCH  43  45
ATOM     44  C   ALA A   3      22.293  14.643  22.709  0.00  0.00    +0.241 C 
ATOM     45  N   SER A   4      22.389  15.640  23.594  0.00  0.00    -0.295 N 
ATOM     46  H   SER A   4      21.532  16.176  23.837  0.00  0.00    +0.150 HD
ATOM     47  O   ALA A   3      23.238  13.905  22.427  0.00  0.00    -0.273 OA
BRANCH  44  48
ATOM     48  CA  ALA A   3      20.929  14.429  22.055  0.00  0.00    +0.149 C 
ATOM     49  CB  ALA A   3      20.519  15.648  21.215  0.00  0.00    +0.031 C 
BRANCH  48  51
ATOM     50  C   ALA A   2      19.249  12.973  23.069  0.00  0.00    +0.241 C 
ATOM     51  N   ALA A   3      19.907  14.129  23.048  0.00  0.00    -0.297 N 
ATOM     52  H   ALA A   3      19.683  14.845  23.768  0.00  0.00    +0.150 HD
ATOM     53  O   ALA A   2      19.358  12.114  22.198  0.00  0.00    -0.273 OA
BRANCH  50  54
ATOM     54  CA  ALA A   2      18.325  12.760  24.258  0.00  0.00    +0.149 C 
ATOM     55  CB  ALA A   2      19.101  12.193  25.428  0.00  0.00    +0.031 C 
BRANCH  54  58
ATOM     56  C   LEU A   1      16.025  12.103  24.435  0.00  0.00    +0.238 C 
ATOM     57  O   LEU A   1      15.847  12.899  25.349  0.00  0.00    -0.274 OA
ATOM     58  N   ALA A   2      17.219  11.901  23.904  0.00  0.00    -0.297 N 
ATOM     59  H   ALA A   2      17.362  11.122  23.230  0.00  0.00    +0.150 HD
BRANCH  56  60
ATOM     60  CA  LEU A   1      14.868  11.281  23.867  0.00  0.00    +0.145 C 
BRANCH  60  61
ATOM     61  N   LEU A   1      14.025  10.881  24.969  0.00  0.00    -0.238 NA
ATOM     62  H   LEU A   1      13.323  11.557  25.331  0.00  0.00    +0.142 HD
ENDBRANCH  60  61
BRANCH  60  63
ATOM     63  CB  LEU A   1      14.027  12.106  22.867  0.00  0.00    +0.026 C 
BRANCH  63  64
ATOM     64  CG  LEU A   1      14.689  12.758  21.655  0.00  0.00    +0.002 C 
ATOM     65  CD2 LEU A   1      15.299  14.078  22.064  0.00  0.00    +0.000 C 
ATOM     66  CD1 LEU A   1      13.664  13.013  20.584  0.00  0.00    +0.000 C 
ENDBRANCH  63  64
ENDBRANCH  60  63
ENDBRANCH  56  60
ENDBRANCH  54  58
ENDBRANCH  50  54
ENDBRANCH  48  51
ENDBRANCH  44  48
ENDBRANCH  43  45
BRANCH  43  67
ATOM     67  CB  SER A   4      23.438  17.059  25.337  0.00  0.00    +0.166 C 
BRANCH  67  68
ATOM     68  OG  SER A   4      23.053  18.316  24.800  0.00  0.00    -0.380 OA
ATOM     69  H   SER A   4      22.209  18.213  24.293  0.00  0.00    +0.211 HD
ENDBRANCH  67  68
ENDBRANCH  43  67
ENDBRANCH  39  43
ENDBRANCH  38  40
BRANCH  38  70
ATOM     70  CB  VAL A   5      23.775  12.385  27.521  0.00  0.00    +0.027 C 
ATOM     71  CG2 VAL A   5      23.697  13.412  28.644  0.00  0.00    +0.002 C 
ATOM     72  CG1 VAL A   5      22.375  11.942  27.046  0.00  0.00    +0.002 C 
ENDBRANCH  38  70
ENDBRANCH   1  38
TORSDOF 27
REMARK  Name = ../refined-set-2016/4ewn/4ewn_pocket.pdb
REMARK  196 active torsions:
REMARK  status: ('A' for Active; 'I' for Inactive)
REMARK    1  A    between atoms: _1  and  _3
REMARK    2  A    between atoms: _3  and  _4
REMARK    3  A    between atoms: _3  and  _6
REMARK    4  A    between atoms: _6  and  _7
REMARK    5  A    between atoms: _10  and  _12
REMARK    6  A    between atoms: _12  and  _13
REMARK    7  A    between atoms: _16  and  _18
REMARK    8  A    between atoms: _18  and  _19
REMARK    9  A    between atoms: _18  and  _21
REMARK   10  A    between atoms: _23  and  _25
REMARK   11  A    between atoms: _25  and  _26
REMARK   12  A    between atoms: _25  and  _28
REMARK   13  A    between atoms: _28  and  _29
REMARK   14  A    between atoms: _32  and  _34
REMARK   15  A    between atoms: _34  and  _35
REMARK   16  A    between atoms: _34  and  _37
REMARK   17  A    between atoms: _37  and  _38
REMARK   18  A    between atoms: _41  and  _43
REMARK   19  A    between atoms: _43  and  _44
REMARK   20  A    between atoms: _43  and  _46
REMARK   21  A    between atoms: _49  and  _51
REMARK   22  A    between atoms: _51  and  _52
REMARK   23  A    between atoms: _51  and  _54
REMARK   24  A    between atoms: _54  and  _55
REMARK   25  A    between atoms: _58  and  _60
REMARK   26  A    between atoms: _60  and  _61
REMARK   27  A    between atoms: _60  and  _63
REMARK   28  A    between atoms: _63  and  _64
REMARK   29  A    between atoms: _67  and  _69
REMARK   30  A    between atoms: _69  and  _70
REMARK   31  A    between atoms: _69  and  _72
REMARK   32  A    between atoms: _72  and  _73
REMARK   33  A    between atoms: _76  and  _78
REMARK   34  A    between atoms: _78  and  _79
REMARK   35  A    between atoms: _81  and  _83
REMARK   36  A    between atoms: _83  and  _84
REMARK   37  A    between atoms: _86  and  _88
REMARK   38  A    between atoms: _88  and  _89
REMARK   39  A    between atoms: _91  and  _93
REMARK   40  A    between atoms: _93  and  _94
REMARK   41  A    between atoms: _93  and  _96
REMARK   42  A    between atoms: _96  and  _97
REMARK   43  A    between atoms: _99  and  _101
REMARK   44  A    between atoms: _101  and  _102
REMARK   45  A    between atoms: _101  and  _104
REMARK   46  A    between atoms: _104  and  _105
REMARK   47  A    between atoms: _110  and  _112
REMARK   48  A    between atoms: _112  and  _113
REMARK   49  A    between atoms: _112  and  _115
REMARK   50  A    between atoms: _115  and  _116
REMARK   51  A    between atoms: _119  and  _121
REMARK   52  A    between atoms: _121  and  _122
REMARK   53  A    between atoms: _125  and  _127
REMARK   54  A    between atoms: _127  and  _128
REMARK   55  A    between atoms: _127  and  _130
REMARK   56  A    between atoms: _130  and  _131
REMARK   57  A    between atoms: _134  and  _136
REMARK   58  A    between atoms: _136  and  _137
REMARK   59  A    between atoms: _136  and  _139
REMARK   60  A    between atoms: _142  and  _144
REMARK   61  A    between atoms: _144  and  _145
REMARK   62  A    between atoms: _148  and  _150
REMARK   63  A    between atoms: _150  and  _151
REMARK   64  A    between atoms: _150  and  _153
REMARK   65  A    between atoms: _153  and  _154
REMARK   66  A    between atoms: _154  and  _155
REMARK   67  A    between atoms: _155  and  _156
REMARK   68  A    between atoms: _156  and  _157
REMARK   69  A    between atoms: _161  and  _163
REMARK   70  A    between atoms: _163  and  _164
REMARK   71  A    between atoms: _163  and  _166
REMARK   72  A    between atoms: _166  and  _167
REMARK   73  A    between atoms: _173  and  _175
REMARK   74  A    between atoms: _175  and  _176
REMARK   75  A    between atoms: _175  and  _178
REMARK   76  A    between atoms: _178  and  _179
REMARK   77  A    between atoms: _182  and  _184
REMARK   78  A    between atoms: _184  and  _185
REMARK   79  A    between atoms: _184  and  _187
REMARK   80  A    between atoms: _187  and  _188
REMARK   81  A    between atoms: _193  and  _194
REMARK   82  A    between atoms: _196  and  _198
REMARK   83  A    between atoms: _198  and  _199
REMARK   84  A    between atoms: _198  and  _201
REMARK   85  A    between atoms: _201  and  _202
REMARK   86  A    between atoms: _204  and  _206
REMARK   87  A    between atoms: _206  and  _207
REMARK   88  A    between atoms: _209  and  _211
REMARK   89  A    between atoms: _211  and  _212
REMARK   90  A    between atoms: _211  and  _214
REMARK   91  A    between atoms: _214  and  _215
REMARK   92  A    between atoms: _215  and  _216
REMARK   93  A    between atoms: _216  and  _217
REMARK   94  A    between atoms: _217  and  _218
REMARK   95  A    between atoms: _222  and  _224
REMARK   96  A    between atoms: _224  and  _225
REMARK   97  A    between atoms: _224  and  _227
REMARK   98  A    between atoms: _227  and  _228
REMARK   99  A    between atoms: _231  and  _233
REMARK  100  A    between atoms: _233  and  _234
REMARK  101  A    between atoms: _233  and  _236
REMARK  102  A    between atoms: _236  and  _237
REMARK  103  A    between atoms: _240  and  _242
REMARK  104  A    between atoms: _242  and  _243
REMARK  105  A    between atoms: _242  and  _245
REMARK  106  A    between atoms: _245  and  _246
REMARK  107  A    between atoms: _249  and  _251
REMARK  108  A    between atoms: _251  and  _252
REMARK  109  A    between atoms: _251  and  _254
REMARK  110  A    between atoms: _254  and  _255
REMARK  111  A    between atoms: _257  and  _259
REMARK  112  A    between atoms: _259  and  _260
REMARK  113  A    between atoms: _259  and  _262
REMARK  114  A    between atoms: _262  and  _263
REMARK  115  A    between atoms: _266  and  _268
REMARK  116  A    between atoms: _268  and  _269
REMARK  117  A    between atoms: _268  and  _271
REMARK  118  A    between atoms: _271  and  _272
REMARK  119  A    between atoms: _275  and  _277
REMARK  120  A    between atoms: _277  and  _278
REMARK  121  A    between atoms: _277  and  _280
REMARK  122  A    between atoms: _280  and  _281
REMARK  123  A    between atoms: _281  and  _282
REMARK  124  A    between atoms: _282  and  _283
REMARK  125  A    between atoms: _292  and  _294
REMARK  126  A    between atoms: _294  and  _295
REMARK  127  A    between atoms: _294  and  _297
REMARK  128  A    between atoms: _300  and  _302
REMARK  129  A    between atoms: _302  and  _303
REMARK  130  A    between atoms: _305  and  _307
REMARK  131  A    between atoms: _307  and  _308
REMARK  132  A    between atoms: _307  and  _310
REMARK  133  A    between atoms: _310  and  _311
REMARK  134  A    between atoms: _314  and  _316
REMARK  135  A    between atoms: _316  and  _317
REMARK  136  A    between atoms: _316  and  _319
REMARK  137  A    between atoms: _319  and  _320
REMARK  138  A    between atoms: _320  and  _321
REMARK  139  A    between atoms: _321  and  _322
REMARK  140  A    between atoms: _322  and  _323
REMARK  141  A    between atoms: _327  and  _329
REMARK  142  A    between atoms: _329  and  _330
REMARK  143  A    between atoms: _329  and  _332
REMARK  144  A    between atoms: _332  and  _333
REMARK  145  A    between atoms: _335  and  _337
REMARK  146  A    between atoms: _337  and  _338
REMARK  147  A    between atoms: _340  and  _342
REMARK  148  A    between atoms: _342  and  _343
REMARK  149  A    between atoms: _342  and  _345
REMARK  150  A    between atoms: _345  and  _346
REMARK  151  A    between atoms: _351  and  _352
REMARK  152  A    between atoms: _354  and  _356
REMARK  153  A    between atoms: _356  and  _357
REMARK  154  A    between atoms: _360  and  _362
REMARK  155  A    between atoms: _362  and  _363
REMARK  156  A    between atoms: _362  and  _365
REMARK  157  A    between atoms: _365  and  _366
REMARK  158  A    between atoms: _368  and  _370
REMARK  159  A    between atoms: _370  and  _371
REMARK  160  A    between atoms: _373  and  _375
REMARK  161  A    between atoms: _375  and  _376
REMARK  162  A    between atoms: _378  and  _380
REMARK  163  A    between atoms: _380  and  _381
REMARK  164  A    between atoms: _384  and  _386
REMARK  165  A    between atoms: _386  and  _387
REMARK  166  A    between atoms: _389  and  _391
REMARK  167  A    between atoms: _391  and  _392
REMARK  168  A    between atoms: _391  and  _394
REMARK  169  A    between atoms: _394  and  _395
REMARK  170  A    between atoms: _401  and  _403
REMARK  171  A    between atoms: _403  and  _404
REMARK  172  A    between atoms: _403  and  _406
REMARK  173  A    between atoms: _406  and  _407
REMARK  174  A    between atoms: _410  and  _412
REMARK  175  A    between atoms: _412  and  _413
REMARK  176  A    between atoms: _416  and  _418
REMARK  177  A    between atoms: _418  and  _419
REMARK  178  A    between atoms: _422  and  _424
REMARK  179  A    between atoms: _424  and  _425
REMARK  180  A    between atoms: _424  and  _427
REMARK  181  A    between atoms: _427  and  _428
REMARK  182  A    between atoms: _430  and  _432
REMARK  183  A    between atoms: _432  and  _433
REMARK  184  A    between atoms: _432  and  _435
REMARK  185  A    between atoms: _438  and  _440
REMARK  186  A    between atoms: _440  and  _441
REMARK  187  A    between atoms: _440  and  _443
REMARK  188  A    between atoms: _443  and  _444
REMARK  189  A    between atoms: _450  and  _452
REMARK  190  A    between atoms: _452  and  _453
REMARK  191  A    between atoms: _452  and  _455
REMARK  192  A    between atoms: _455  and  _456
REMARK  193  A    between atoms: _461  and  _463
REMARK  194  A    between atoms: _463  and  _464
REMARK  195  A    between atoms: _463  and  _466
REMARK  196  A    between atoms: _466  and  _467
REMARK                            x       y       z     vdW  Elec       q    Type
REMARK                         _______ _______ _______ _____ _____    ______ ____
ROOT
ATOM      1  O   HOH     1       4.835  23.600  20.103  0.00  0.00    +0.000 OA
ENDROOT
TORSDOF 0
REMARK  Name = ../refined-set-2016/4ewn/4ewn_pocket.pdb
REMARK  196 active torsions:
REMARK  status: ('A' for Active; 'I' for Inactive)
REMARK    1  A    between atoms: _1  and  _3
REMARK    2  A    between atoms: _3  and  _4
REMARK    3  A    between atoms: _3  and  _6
REMARK    4  A    between atoms: _6  and  _7
REMARK    5  A    between atoms: _10  and  _12
REMARK    6  A    between atoms: _12  and  _13
REMARK    7  A    between atoms: _16  and  _18
REMARK    8  A    between atoms: _18  and  _19
REMARK    9  A    between atoms: _18  and  _21
REMARK   10  A    between atoms: _23  and  _25
REMARK   11  A    between atoms: _25  and  _26
REMARK   12  A    between atoms: _25  and  _28
REMARK   13  A    between atoms: _28  and  _29
REMARK   14  A    between atoms: _32  and  _34
REMARK   15  A    between atoms: _34  and  _35
REMARK   16  A    between atoms: _34  and  _37
REMARK   17  A    between atoms: _37  and  _38
REMARK   18  A    between atoms: _41  and  _43
REMARK   19  A    between atoms: _43  and  _44
REMARK   20  A    between atoms: _43  and  _46
REMARK   21  A    between atoms: _49  and  _51
REMARK   22  A    between atoms: _51  and  _52
REMARK   23  A    between atoms: _51  and  _54
REMARK   24  A    between atoms: _54  and  _55
REMARK   25  A    between atoms: _58  and  _60
REMARK   26  A    between atoms: _60  and  _61
REMARK   27  A    between atoms: _60  and  _63
REMARK   28  A    between atoms: _63  and  _64
REMARK   29  A    between atoms: _67  and  _69
REMARK   30  A    between atoms: _69  and  _70
REMARK   31  A    between atoms: _69  and  _72
REMARK   32  A    between atoms: _72  and  _73
REMARK   33  A    between atoms: _76  and  _78
REMARK   34  A    between atoms: _78  and  _79
REMARK   35  A    between atoms: _81  and  _83
REMARK   36  A    between atoms: _83  and  _84
REMARK   37  A    between atoms: _86  and  _88
REMARK   38  A    between atoms: _88  and  _89
REMARK   39  A    between atoms: _91  and  _93
REMARK   40  A    between atoms: _93  and  _94
REMARK   41  A    between atoms: _93  and  _96
REMARK   42  A    between atoms: _96  and  _97
REMARK   43  A    between atoms: _99  and  _101
REMARK   44  A    between atoms: _101  and  _102
REMARK   45  A    between atoms: _101  and  _104
REMARK   46  A    between atoms: _104  and  _105
REMARK   47  A    between atoms: _110  and  _112
REMARK   48  A    between atoms: _112  and  _113
REMARK   49  A    between atoms: _112  and  _115
REMARK   50  A    between atoms: _115  and  _116
REMARK   51  A    between atoms: _119  and  _121
REMARK   52  A    between atoms: _121  and  _122
REMARK   53  A    between atoms: _125  and  _127
REMARK   54  A    between atoms: _127  and  _128
REMARK   55  A    between atoms: _127  and  _130
REMARK   56  A    between atoms: _130  and  _131
REMARK   57  A    between atoms: _134  and  _136
REMARK   58  A    between atoms: _136  and  _137
REMARK   59  A    between atoms: _136  and  _139
REMARK   60  A    between atoms: _142  and  _144
REMARK   61  A    between atoms: _144  and  _145
REMARK   62  A    between atoms: _148  and  _150
REMARK   63  A    between atoms: _150  and  _151
REMARK   64  A    between atoms: _150  and  _153
REMARK   65  A    between atoms: _153  and  _154
REMARK   66  A    between atoms: _154  and  _155
REMARK   67  A    between atoms: _155  and  _156
REMARK   68  A    between atoms: _156  and  _157
REMARK   69  A    between atoms: _161  and  _163
REMARK   70  A    between atoms: _163  and  _164
REMARK   71  A    between atoms: _163  and  _166
REMARK   72  A    between atoms: _166  and  _167
REMARK   73  A    between atoms: _173  and  _175
REMARK   74  A    between atoms: _175  and  _176
REMARK   75  A    between atoms: _175  and  _178
REMARK   76  A    between atoms: _178  and  _179
REMARK   77  A    between atoms: _182  and  _184
REMARK   78  A    between atoms: _184  and  _185
REMARK   79  A    between atoms: _184  and  _187
REMARK   80  A    between atoms: _187  and  _188
REMARK   81  A    between atoms: _193  and  _194
REMARK   82  A    between atoms: _196  and  _198
REMARK   83  A    between atoms: _198  and  _199
REMARK   84  A    between atoms: _198  and  _201
REMARK   85  A    between atoms: _201  and  _202
REMARK   86  A    between atoms: _204  and  _206
REMARK   87  A    between atoms: _206  and  _207
REMARK   88  A    between atoms: _209  and  _211
REMARK   89  A    between atoms: _211  and  _212
REMARK   90  A    between atoms: _211  and  _214
REMARK   91  A    between atoms: _214  and  _215
REMARK   92  A    between atoms: _215  and  _216
REMARK   93  A    between atoms: _216  and  _217
REMARK   94  A    between atoms: _217  and  _218
REMARK   95  A    between atoms: _222  and  _224
REMARK   96  A    between atoms: _224  and  _225
REMARK   97  A    between atoms: _224  and  _227
REMARK   98  A    between atoms: _227  and  _228
REMARK   99  A    between atoms: _231  and  _233
REMARK  100  A    between atoms: _233  and  _234
REMARK  101  A    between atoms: _233  and  _236
REMARK  102  A    between atoms: _236  and  _237
REMARK  103  A    between atoms: _240  and  _242
REMARK  104  A    between atoms: _242  and  _243
REMARK  105  A    between atoms: _242  and  _245
REMARK  106  A    between atoms: _245  and  _246
REMARK  107  A    between atoms: _249  and  _251
REMARK  108  A    between atoms: _251  and  _252
REMARK  109  A    between atoms: _251  and  _254
REMARK  110  A    between atoms: _254  and  _255
REMARK  111  A    between atoms: _257  and  _259
REMARK  112  A    between atoms: _259  and  _260
REMARK  113  A    between atoms: _259  and  _262
REMARK  114  A    between atoms: _262  and  _263
REMARK  115  A    between atoms: _266  and  _268
REMARK  116  A    between atoms: _268  and  _269
REMARK  117  A    between atoms: _268  and  _271
REMARK  118  A    between atoms: _271  and  _272
REMARK  119  A    between atoms: _275  and  _277
REMARK  120  A    between atoms: _277  and  _278
REMARK  121  A    between atoms: _277  and  _280
REMARK  122  A    between atoms: _280  and  _281
REMARK  123  A    between atoms: _281  and  _282
REMARK  124  A    between atoms: _282  and  _283
REMARK  125  A    between atoms: _292  and  _294
REMARK  126  A    between atoms: _294  and  _295
REMARK  127  A    between atoms: _294  and  _297
REMARK  128  A    between atoms: _300  and  _302
REMARK  129  A    between atoms: _302  and  _303
REMARK  130  A    between atoms: _305  and  _307
REMARK  131  A    between atoms: _307  and  _308
REMARK  132  A    between atoms: _307  and  _310
REMARK  133  A    between atoms: _310  and  _311
REMARK  134  A    between atoms: _314  and  _316
REMARK  135  A    between atoms: _316  and  _317
REMARK  136  A    between atoms: _316  and  _319
REMARK  137  A    between atoms: _319  and  _320
REMARK  138  A    between atoms: _320  and  _321
REMARK  139  A    between atoms: _321  and  _322
REMARK  140  A    between atoms: _322  and  _323
REMARK  141  A    between atoms: _327  and  _329
REMARK  142  A    between atoms: _329  and  _330
REMARK  143  A    between atoms: _329  and  _332
REMARK  144  A    between atoms: _332  and  _333
REMARK  145  A    between atoms: _335  and  _337
REMARK  146  A    between atoms: _337  and  _338
REMARK  147  A    between atoms: _340  and  _342
REMARK  148  A    between atoms: _342  and  _343
REMARK  149  A    between atoms: _342  and  _345
REMARK  150  A    between atoms: _345  and  _346
REMARK  151  A    between atoms: _351  and  _352
REMARK  152  A    between atoms: _354  and  _356
REMARK  153  A    between atoms: _356  and  _357
REMARK  154  A    between atoms: _360  and  _362
REMARK  155  A    between atoms: _362  and  _363
REMARK  156  A    between atoms: _362  and  _365
REMARK  157  A    between atoms: _365  and  _366
REMARK  158  A    between atoms: _368  and  _370
REMARK  159  A    between atoms: _370  and  _371
REMARK  160  A    between atoms: _373  and  _375
REMARK  161  A    between atoms: _375  and  _376
REMARK  162  A    between atoms: _378  and  _380
REMARK  163  A    between atoms: _380  and  _381
REMARK  164  A    between atoms: _384  and  _386
REMARK  165  A    between atoms: _386  and  _387
REMARK  166  A    between atoms: _389  and  _391
REMARK  167  A    between atoms: _391  and  _392
REMARK  168  A    between atoms: _391  and  _394
REMARK  169  A    between atoms: _394  and  _395
REMARK  170  A    between atoms: _401  and  _403
REMARK  171  A    between atoms: _403  and  _404
REMARK  172  A    between atoms: _403  and  _406
REMARK  173  A    between atoms: _406  and  _407
REMARK  174  A    between atoms: _410  and  _412
REMARK  175  A    between atoms: _412  and  _413
REMARK  176  A    between atoms: _416  and  _418
REMARK  177  A    between atoms: _418  and  _419
REMARK  178  A    between atoms: _422  and  _424
REMARK  179  A    between atoms: _424  and  _425
REMARK  180  A    between atoms: _424  and  _427
REMARK  181  A    between atoms: _427  and  _428
REMARK  182  A    between atoms: _430  and  _432
REMARK  183  A    between atoms: _432  and  _433
REMARK  184  A    between atoms: _432  and  _435
REMARK  185  A    between atoms: _438  and  _440
REMARK  186  A    between atoms: _440  and  _441
REMARK  187  A    between atoms: _440  and  _443
REMARK  188  A    between atoms: _443  and  _444
REMARK  189  A    between atoms: _450  and  _452
REMARK  190  A    between atoms: _452  and  _453
REMARK  191  A    between atoms: _452  and  _455
REMARK  192  A    between atoms: _455  and  _456
REMARK  193  A    between atoms: _461  and  _463
REMARK  194  A    between atoms: _463  and  _464
REMARK  195  A    between atoms: _463  and  _466
REMARK  196  A    between atoms: _466  and  _467
REMARK                            x       y       z     vdW  Elec       q    Type
REMARK                         _______ _______ _______ _____ _____    ______ ____
ROOT
ATOM      1  O   HOH     1      17.140  15.294  26.551  0.00  0.00    +0.000 OA
ENDROOT
TORSDOF 0
REMARK  Name = ../refined-set-2016/4ewn/4ewn_pocket.pdb
REMARK  196 active torsions:
REMARK  status: ('A' for Active; 'I' for Inactive)
REMARK    1  A    between atoms: _1  and  _3
REMARK    2  A    between atoms: _3  and  _4
REMARK    3  A    between atoms: _3  and  _6
REMARK    4  A    between atoms: _6  and  _7
REMARK    5  A    between atoms: _10  and  _12
REMARK    6  A    between atoms: _12  and  _13
REMARK    7  A    between atoms: _16  and  _18
REMARK    8  A    between atoms: _18  and  _19
REMARK    9  A    between atoms: _18  and  _21
REMARK   10  A    between atoms: _23  and  _25
REMARK   11  A    between atoms: _25  and  _26
REMARK   12  A    between atoms: _25  and  _28
REMARK   13  A    between atoms: _28  and  _29
REMARK   14  A    between atoms: _32  and  _34
REMARK   15  A    between atoms: _34  and  _35
REMARK   16  A    between atoms: _34  and  _37
REMARK   17  A    between atoms: _37  and  _38
REMARK   18  A    between atoms: _41  and  _43
REMARK   19  A    between atoms: _43  and  _44
REMARK   20  A    between atoms: _43  and  _46
REMARK   21  A    between atoms: _49  and  _51
REMARK   22  A    between atoms: _51  and  _52
REMARK   23  A    between atoms: _51  and  _54
REMARK   24  A    between atoms: _54  and  _55
REMARK   25  A    between atoms: _58  and  _60
REMARK   26  A    between atoms: _60  and  _61
REMARK   27  A    between atoms: _60  and  _63
REMARK   28  A    between atoms: _63  and  _64
REMARK   29  A    between atoms: _67  and  _69
REMARK   30  A    between atoms: _69  and  _70
REMARK   31  A    between atoms: _69  and  _72
REMARK   32  A    between atoms: _72  and  _73
REMARK   33  A    between atoms: _76  and  _78
REMARK   34  A    between atoms: _78  and  _79
REMARK   35  A    between atoms: _81  and  _83
REMARK   36  A    between atoms: _83  and  _84
REMARK   37  A    between atoms: _86  and  _88
REMARK   38  A    between atoms: _88  and  _89
REMARK   39  A    between atoms: _91  and  _93
REMARK   40  A    between atoms: _93  and  _94
REMARK   41  A    between atoms: _93  and  _96
REMARK   42  A    between atoms: _96  and  _97
REMARK   43  A    between atoms: _99  and  _101
REMARK   44  A    between atoms: _101  and  _102
REMARK   45  A    between atoms: _101  and  _104
REMARK   46  A    between atoms: _104  and  _105
REMARK   47  A    between atoms: _110  and  _112
REMARK   48  A    between atoms: _112  and  _113
REMARK   49  A    between atoms: _112  and  _115
REMARK   50  A    between atoms: _115  and  _116
REMARK   51  A    between atoms: _119  and  _121
REMARK   52  A    between atoms: _121  and  _122
REMARK   53  A    between atoms: _125  and  _127
REMARK   54  A    between atoms: _127  and  _128
REMARK   55  A    between atoms: _127  and  _130
REMARK   56  A    between atoms: _130  and  _131
REMARK   57  A    between atoms: _134  and  _136
REMARK   58  A    between atoms: _136  and  _137
REMARK   59  A    between atoms: _136  and  _139
REMARK   60  A    between atoms: _142  and  _144
REMARK   61  A    between atoms: _144  and  _145
REMARK   62  A    between atoms: _148  and  _150
REMARK   63  A    between atoms: _150  and  _151
REMARK   64  A    between atoms: _150  and  _153
REMARK   65  A    between atoms: _153  and  _154
REMARK   66  A    between atoms: _154  and  _155
REMARK   67  A    between atoms: _155  and  _156
REMARK   68  A    between atoms: _156  and  _157
REMARK   69  A    between atoms: _161  and  _163
REMARK   70  A    between atoms: _163  and  _164
REMARK   71  A    between atoms: _163  and  _166
REMARK   72  A    between atoms: _166  and  _167
REMARK   73  A    between atoms: _173  and  _175
REMARK   74  A    between atoms: _175  and  _176
REMARK   75  A    between atoms: _175  and  _178
REMARK   76  A    between atoms: _178  and  _179
REMARK   77  A    between atoms: _182  and  _184
REMARK   78  A    between atoms: _184  and  _185
REMARK   79  A    between atoms: _184  and  _187
REMARK   80  A    between atoms: _187  and  _188
REMARK   81  A    between atoms: _193  and  _194
REMARK   82  A    between atoms: _196  and  _198
REMARK   83  A    between atoms: _198  and  _199
REMARK   84  A    between atoms: _198  and  _201
REMARK   85  A    between atoms: _201  and  _202
REMARK   86  A    between atoms: _204  and  _206
REMARK   87  A    between atoms: _206  and  _207
REMARK   88  A    between atoms: _209  and  _211
REMARK   89  A    between atoms: _211  and  _212
REMARK   90  A    between atoms: _211  and  _214
REMARK   91  A    between atoms: _214  and  _215
REMARK   92  A    between atoms: _215  and  _216
REMARK   93  A    between atoms: _216  and  _217
REMARK   94  A    between atoms: _217  and  _218
REMARK   95  A    between atoms: _222  and  _224
REMARK   96  A    between atoms: _224  and  _225
REMARK   97  A    between atoms: _224  and  _227
REMARK   98  A    between atoms: _227  and  _228
REMARK   99  A    between atoms: _231  and  _233
REMARK  100  A    between atoms: _233  and  _234
REMARK  101  A    between atoms: _233  and  _236
REMARK  102  A    between atoms: _236  and  _237
REMARK  103  A    between atoms: _240  and  _242
REMARK  104  A    between atoms: _242  and  _243
REMARK  105  A    between atoms: _242  and  _245
REMARK  106  A    between atoms: _245  and  _246
REMARK  107  A    between atoms: _249  and  _251
REMARK  108  A    between atoms: _251  and  _252
REMARK  109  A    between atoms: _251  and  _254
REMARK  110  A    between atoms: _254  and  _255
REMARK  111  A    between atoms: _257  and  _259
REMARK  112  A    between atoms: _259  and  _260
REMARK  113  A    between atoms: _259  and  _262
REMARK  114  A    between atoms: _262  and  _263
REMARK  115  A    between atoms: _266  and  _268
REMARK  116  A    between atoms: _268  and  _269
REMARK  117  A    between atoms: _268  and  _271
REMARK  118  A    between atoms: _271  and  _272
REMARK  119  A    between atoms: _275  and  _277
REMARK  120  A    between atoms: _277  and  _278
REMARK  121  A    between atoms: _277  and  _280
REMARK  122  A    between atoms: _280  and  _281
REMARK  123  A    between atoms: _281  and  _282
REMARK  124  A    between atoms: _282  and  _283
REMARK  125  A    between atoms: _292  and  _294
REMARK  126  A    between atoms: _294  and  _295
REMARK  127  A    between atoms: _294  and  _297
REMARK  128  A    between atoms: _300  and  _302
REMARK  129  A    between atoms: _302  and  _303
REMARK  130  A    between atoms: _305  and  _307
REMARK  131  A    between atoms: _307  and  _308
REMARK  132  A    between atoms: _307  and  _310
REMARK  133  A    between atoms: _310  and  _311
REMARK  134  A    between atoms: _314  and  _316
REMARK  135  A    between atoms: _316  and  _317
REMARK  136  A    between atoms: _316  and  _319
REMARK  137  A    between atoms: _319  and  _320
REMARK  138  A    between atoms: _320  and  _321
REMARK  139  A    between atoms: _321  and  _322
REMARK  140  A    between atoms: _322  and  _323
REMARK  141  A    between atoms: _327  and  _329
REMARK  142  A    between atoms: _329  and  _330
REMARK  143  A    between atoms: _329  and  _332
REMARK  144  A    between atoms: _332  and  _333
REMARK  145  A    between atoms: _335  and  _337
REMARK  146  A    between atoms: _337  and  _338
REMARK  147  A    between atoms: _340  and  _342
REMARK  148  A    between atoms: _342  and  _343
REMARK  149  A    between atoms: _342  and  _345
REMARK  150  A    between atoms: _345  and  _346
REMARK  151  A    between atoms: _351  and  _352
REMARK  152  A    between atoms: _354  and  _356
REMARK  153  A    between atoms: _356  and  _357
REMARK  154  A    between atoms: _360  and  _362
REMARK  155  A    between atoms: _362  and  _363
REMARK  156  A    between atoms: _362  and  _365
REMARK  157  A    between atoms: _365  and  _366
REMARK  158  A    between atoms: _368  and  _370
REMARK  159  A    between atoms: _370  and  _371
REMARK  160  A    between atoms: _373  and  _375
REMARK  161  A    between atoms: _375  and  _376
REMARK  162  A    between atoms: _378  and  _380
REMARK  163  A    between atoms: _380  and  _381
REMARK  164  A    between atoms: _384  and  _386
REMARK  165  A    between atoms: _386  and  _387
REMARK  166  A    between atoms: _389  and  _391
REMARK  167  A    between atoms: _391  and  _392
REMARK  168  A    between atoms: _391  and  _394
REMARK  169  A    between atoms: _394  and  _395
REMARK  170  A    between atoms: _401  and  _403
REMARK  171  A    between atoms: _403  and  _404
REMARK  172  A    between atoms: _403  and  _406
REMARK  173  A    between atoms: _406  and  _407
REMARK  174  A    between atoms: _410  and  _412
REMARK  175  A    between atoms: _412  and  _413
REMARK  176  A    between atoms: _416  and  _418
REMARK  177  A    between atoms: _418  and  _419
REMARK  178  A    between atoms: _422  and  _424
REMARK  179  A    between atoms: _424  and  _425
REMARK  180  A    between atoms: _424  and  _427
REMARK  181  A    between atoms: _427  and  _428
REMARK  182  A    between atoms: _430  and  _432
REMARK  183  A    between atoms: _432  and  _433
REMARK  184  A    between atoms: _432  and  _435
REMARK  185  A    between atoms: _438  and  _440
REMARK  186  A    between atoms: _440  and  _441
REMARK  187  A    between atoms: _440  and  _443
REMARK  188  A    between atoms: _443  and  _444
REMARK  189  A    between atoms: _450  and  _452
REMARK  190  A    between atoms: _452  and  _453
REMARK  191  A    between atoms: _452  and  _455
REMARK  192  A    between atoms: _455  and  _456
REMARK  193  A    between atoms: _461  and  _463
REMARK  194  A    between atoms: _463  and  _464
REMARK  195  A    between atoms: _463  and  _466
REMARK  196  A    between atoms: _466  and  _467
REMARK                            x       y       z     vdW  Elec       q    Type
REMARK                         _______ _______ _______ _____ _____    ______ ____
ROOT
ATOM      1  O   HOH     1      21.048  15.075  26.538  0.00  0.00    +0.000 OA
ENDROOT
TORSDOF 0
REMARK  Name = ../refined-set-2016/4ewn/4ewn_pocket.pdb
REMARK  196 active torsions:
REMARK  status: ('A' for Active; 'I' for Inactive)
REMARK    1  A    between atoms: _1  and  _3
REMARK    2  A    between atoms: _3  and  _4
REMARK    3  A    between atoms: _3  and  _6
REMARK    4  A    between atoms: _6  and  _7
REMARK    5  A    between atoms: _10  and  _12
REMARK    6  A    between atoms: _12  and  _13
REMARK    7  A    between atoms: _16  and  _18
REMARK    8  A    between atoms: _18  and  _19
REMARK    9  A    between atoms: _18  and  _21
REMARK   10  A    between atoms: _23  and  _25
REMARK   11  A    between atoms: _25  and  _26
REMARK   12  A    between atoms: _25  and  _28
REMARK   13  A    between atoms: _28  and  _29
REMARK   14  A    between atoms: _32  and  _34
REMARK   15  A    between atoms: _34  and  _35
REMARK   16  A    between atoms: _34  and  _37
REMARK   17  A    between atoms: _37  and  _38
REMARK   18  A    between atoms: _41  and  _43
REMARK   19  A    between atoms: _43  and  _44
REMARK   20  A    between atoms: _43  and  _46
REMARK   21  A    between atoms: _49  and  _51
REMARK   22  A    between atoms: _51  and  _52
REMARK   23  A    between atoms: _51  and  _54
REMARK   24  A    between atoms: _54  and  _55
REMARK   25  A    between atoms: _58  and  _60
REMARK   26  A    between atoms: _60  and  _61
REMARK   27  A    between atoms: _60  and  _63
REMARK   28  A    between atoms: _63  and  _64
REMARK   29  A    between atoms: _67  and  _69
REMARK   30  A    between atoms: _69  and  _70
REMARK   31  A    between atoms: _69  and  _72
REMARK   32  A    between atoms: _72  and  _73
REMARK   33  A    between atoms: _76  and  _78
REMARK   34  A    between atoms: _78  and  _79
REMARK   35  A    between atoms: _81  and  _83
REMARK   36  A    between atoms: _83  and  _84
REMARK   37  A    between atoms: _86  and  _88
REMARK   38  A    between atoms: _88  and  _89
REMARK   39  A    between atoms: _91  and  _93
REMARK   40  A    between atoms: _93  and  _94
REMARK   41  A    between atoms: _93  and  _96
REMARK   42  A    between atoms: _96  and  _97
REMARK   43  A    between atoms: _99  and  _101
REMARK   44  A    between atoms: _101  and  _102
REMARK   45  A    between atoms: _101  and  _104
REMARK   46  A    between atoms: _104  and  _105
REMARK   47  A    between atoms: _110  and  _112
REMARK   48  A    between atoms: _112  and  _113
REMARK   49  A    between atoms: _112  and  _115
REMARK   50  A    between atoms: _115  and  _116
REMARK   51  A    between atoms: _119  and  _121
REMARK   52  A    between atoms: _121  and  _122
REMARK   53  A    between atoms: _125  and  _127
REMARK   54  A    between atoms: _127  and  _128
REMARK   55  A    between atoms: _127  and  _130
REMARK   56  A    between atoms: _130  and  _131
REMARK   57  A    between atoms: _134  and  _136
REMARK   58  A    between atoms: _136  and  _137
REMARK   59  A    between atoms: _136  and  _139
REMARK   60  A    between atoms: _142  and  _144
REMARK   61  A    between atoms: _144  and  _145
REMARK   62  A    between atoms: _148  and  _150
REMARK   63  A    between atoms: _150  and  _151
REMARK   64  A    between atoms: _150  and  _153
REMARK   65  A    between atoms: _153  and  _154
REMARK   66  A    between atoms: _154  and  _155
REMARK   67  A    between atoms: _155  and  _156
REMARK   68  A    between atoms: _156  and  _157
REMARK   69  A    between atoms: _161  and  _163
REMARK   70  A    between atoms: _163  and  _164
REMARK   71  A    between atoms: _163  and  _166
REMARK   72  A    between atoms: _166  and  _167
REMARK   73  A    between atoms: _173  and  _175
REMARK   74  A    between atoms: _175  and  _176
REMARK   75  A    between atoms: _175  and  _178
REMARK   76  A    between atoms: _178  and  _179
REMARK   77  A    between atoms: _182  and  _184
REMARK   78  A    between atoms: _184  and  _185
REMARK   79  A    between atoms: _184  and  _187
REMARK   80  A    between atoms: _187  and  _188
REMARK   81  A    between atoms: _193  and  _194
REMARK   82  A    between atoms: _196  and  _198
REMARK   83  A    between atoms: _198  and  _199
REMARK   84  A    between atoms: _198  and  _201
REMARK   85  A    between atoms: _201  and  _202
REMARK   86  A    between atoms: _204  and  _206
REMARK   87  A    between atoms: _206  and  _207
REMARK   88  A    between atoms: _209  and  _211
REMARK   89  A    between atoms: _211  and  _212
REMARK   90  A    between atoms: _211  and  _214
REMARK   91  A    between atoms: _214  and  _215
REMARK   92  A    between atoms: _215  and  _216
REMARK   93  A    between atoms: _216  and  _217
REMARK   94  A    between atoms: _217  and  _218
REMARK   95  A    between atoms: _222  and  _224
REMARK   96  A    between atoms: _224  and  _225
REMARK   97  A    between atoms: _224  and  _227
REMARK   98  A    between atoms: _227  and  _228
REMARK   99  A    between atoms: _231  and  _233
REMARK  100  A    between atoms: _233  and  _234
REMARK  101  A    between atoms: _233  and  _236
REMARK  102  A    between atoms: _236  and  _237
REMARK  103  A    between atoms: _240  and  _242
REMARK  104  A    between atoms: _242  and  _243
REMARK  105  A    between atoms: _242  and  _245
REMARK  106  A    between atoms: _245  and  _246
REMARK  107  A    between atoms: _249  and  _251
REMARK  108  A    between atoms: _251  and  _252
REMARK  109  A    between atoms: _251  and  _254
REMARK  110  A    between atoms: _254  and  _255
REMARK  111  A    between atoms: _257  and  _259
REMARK  112  A    between atoms: _259  and  _260
REMARK  113  A    between atoms: _259  and  _262
REMARK  114  A    between atoms: _262  and  _263
REMARK  115  A    between atoms: _266  and  _268
REMARK  116  A    between atoms: _268  and  _269
REMARK  117  A    between atoms: _268  and  _271
REMARK  118  A    between atoms: _271  and  _272
REMARK  119  A    between atoms: _275  and  _277
REMARK  120  A    between atoms: _277  and  _278
REMARK  121  A    between atoms: _277  and  _280
REMARK  122  A    between atoms: _280  and  _281
REMARK  123  A    between atoms: _281  and  _282
REMARK  124  A    between atoms: _282  and  _283
REMARK  125  A    between atoms: _292  and  _294
REMARK  126  A    between atoms: _294  and  _295
REMARK  127  A    between atoms: _294  and  _297
REMARK  128  A    between atoms: _300  and  _302
REMARK  129  A    between atoms: _302  and  _303
REMARK  130  A    between atoms: _305  and  _307
REMARK  131  A    between atoms: _307  and  _308
REMARK  132  A    between atoms: _307  and  _310
REMARK  133  A    between atoms: _310  and  _311
REMARK  134  A    between atoms: _314  and  _316
REMARK  135  A    between atoms: _316  and  _317
REMARK  136  A    between atoms: _316  and  _319
REMARK  137  A    between atoms: _319  and  _320
REMARK  138  A    between atoms: _320  and  _321
REMARK  139  A    between atoms: _321  and  _322
REMARK  140  A    between atoms: _322  and  _323
REMARK  141  A    between atoms: _327  and  _329
REMARK  142  A    between atoms: _329  and  _330
REMARK  143  A    between atoms: _329  and  _332
REMARK  144  A    between atoms: _332  and  _333
REMARK  145  A    between atoms: _335  and  _337
REMARK  146  A    between atoms: _337  and  _338
REMARK  147  A    between atoms: _340  and  _342
REMARK  148  A    between atoms: _342  and  _343
REMARK  149  A    between atoms: _342  and  _345
REMARK  150  A    between atoms: _345  and  _346
REMARK  151  A    between atoms: _351  and  _352
REMARK  152  A    between atoms: _354  and  _356
REMARK  153  A    between atoms: _356  and  _357
REMARK  154  A    between atoms: _360  and  _362
REMARK  155  A    between atoms: _362  and  _363
REMARK  156  A    between atoms: _362  and  _365
REMARK  157  A    between atoms: _365  and  _366
REMARK  158  A    between atoms: _368  and  _370
REMARK  159  A    between atoms: _370  and  _371
REMARK  160  A    between atoms: _373  and  _375
REMARK  161  A    between atoms: _375  and  _376
REMARK  162  A    between atoms: _378  and  _380
REMARK  163  A    between atoms: _380  and  _381
REMARK  164  A    between atoms: _384  and  _386
REMARK  165  A    between atoms: _386  and  _387
REMARK  166  A    between atoms: _389  and  _391
REMARK  167  A    between atoms: _391  and  _392
REMARK  168  A    between atoms: _391  and  _394
REMARK  169  A    between atoms: _394  and  _395
REMARK  170  A    between atoms: _401  and  _403
REMARK  171  A    between atoms: _403  and  _404
REMARK  172  A    between atoms: _403  and  _406
REMARK  173  A    between atoms: _406  and  _407
REMARK  174  A    between atoms: _410  and  _412
REMARK  175  A    between atoms: _412  and  _413
REMARK  176  A    between atoms: _416  and  _418
REMARK  177  A    between atoms: _418  and  _419
REMARK  178  A    between atoms: _422  and  _424
REMARK  179  A    between atoms: _424  and  _425
REMARK  180  A    between atoms: _424  and  _427
REMARK  181  A    between atoms: _427  and  _428
REMARK  182  A    between atoms: _430  and  _432
REMARK  183  A    between atoms: _432  and  _433
REMARK  184  A    between atoms: _432  and  _435
REMARK  185  A    between atoms: _438  and  _440
REMARK  186  A    between atoms: _440  and  _441
REMARK  187  A    between atoms: _440  and  _443
REMARK  188  A    between atoms: _443  and  _444
REMARK  189  A    between atoms: _450  and  _452
REMARK  190  A    between atoms: _452  and  _453
REMARK  191  A    between atoms: _452  and  _455
REMARK  192  A    between atoms: _455  and  _456
REMARK  193  A    between atoms: _461  and  _463
REMARK  194  A    between atoms: _463  and  _464
REMARK  195  A    between atoms: _463  and  _466
REMARK  196  A    between atoms: _466  and  _467
REMARK                            x       y       z     vdW  Elec       q    Type
REMARK                         _______ _______ _______ _____ _____    ______ ____
ROOT
ATOM      1  O   HOH     1      12.268  17.972  29.456  0.00  0.00    +0.000 OA
ENDROOT
TORSDOF 0
REMARK  Name = ../refined-set-2016/4ewn/4ewn_pocket.pdb
REMARK  196 active torsions:
REMARK  status: ('A' for Active; 'I' for Inactive)
REMARK    1  A    between atoms: _1  and  _3
REMARK    2  A    between atoms: _3  and  _4
REMARK    3  A    between atoms: _3  and  _6
REMARK    4  A    between atoms: _6  and  _7
REMARK    5  A    between atoms: _10  and  _12
REMARK    6  A    between atoms: _12  and  _13
REMARK    7  A    between atoms: _16  and  _18
REMARK    8  A    between atoms: _18  and  _19
REMARK    9  A    between atoms: _18  and  _21
REMARK   10  A    between atoms: _23  and  _25
REMARK   11  A    between atoms: _25  and  _26
REMARK   12  A    between atoms: _25  and  _28
REMARK   13  A    between atoms: _28  and  _29
REMARK   14  A    between atoms: _32  and  _34
REMARK   15  A    between atoms: _34  and  _35
REMARK   16  A    between atoms: _34  and  _37
REMARK   17  A    between atoms: _37  and  _38
REMARK   18  A    between atoms: _41  and  _43
REMARK   19  A    between atoms: _43  and  _44
REMARK   20  A    between atoms: _43  and  _46
REMARK   21  A    between atoms: _49  and  _51
REMARK   22  A    between atoms: _51  and  _52
REMARK   23  A    between atoms: _51  and  _54
REMARK   24  A    between atoms: _54  and  _55
REMARK   25  A    between atoms: _58  and  _60
REMARK   26  A    between atoms: _60  and  _61
REMARK   27  A    between atoms: _60  and  _63
REMARK   28  A    between atoms: _63  and  _64
REMARK   29  A    between atoms: _67  and  _69
REMARK   30  A    between atoms: _69  and  _70
REMARK   31  A    between atoms: _69  and  _72
REMARK   32  A    between atoms: _72  and  _73
REMARK   33  A    between atoms: _76  and  _78
REMARK   34  A    between atoms: _78  and  _79
REMARK   35  A    between atoms: _81  and  _83
REMARK   36  A    between atoms: _83  and  _84
REMARK   37  A    between atoms: _86  and  _88
REMARK   38  A    between atoms: _88  and  _89
REMARK   39  A    between atoms: _91  and  _93
REMARK   40  A    between atoms: _93  and  _94
REMARK   41  A    between atoms: _93  and  _96
REMARK   42  A    between atoms: _96  and  _97
REMARK   43  A    between atoms: _99  and  _101
REMARK   44  A    between atoms: _101  and  _102
REMARK   45  A    between atoms: _101  and  _104
REMARK   46  A    between atoms: _104  and  _105
REMARK   47  A    between atoms: _110  and  _112
REMARK   48  A    between atoms: _112  and  _113
REMARK   49  A    between atoms: _112  and  _115
REMARK   50  A    between atoms: _115  and  _116
REMARK   51  A    between atoms: _119  and  _121
REMARK   52  A    between atoms: _121  and  _122
REMARK   53  A    between atoms: _125  and  _127
REMARK   54  A    between atoms: _127  and  _128
REMARK   55  A    between atoms: _127  and  _130
REMARK   56  A    between atoms: _130  and  _131
REMARK   57  A    between atoms: _134  and  _136
REMARK   58  A    between atoms: _136  and  _137
REMARK   59  A    between atoms: _136  and  _139
REMARK   60  A    between atoms: _142  and  _144
REMARK   61  A    between atoms: _144  and  _145
REMARK   62  A    between atoms: _148  and  _150
REMARK   63  A    between atoms: _150  and  _151
REMARK   64  A    between atoms: _150  and  _153
REMARK   65  A    between atoms: _153  and  _154
REMARK   66  A    between atoms: _154  and  _155
REMARK   67  A    between atoms: _155  and  _156
REMARK   68  A    between atoms: _156  and  _157
REMARK   69  A    between atoms: _161  and  _163
REMARK   70  A    between atoms: _163  and  _164
REMARK   71  A    between atoms: _163  and  _166
REMARK   72  A    between atoms: _166  and  _167
REMARK   73  A    between atoms: _173  and  _175
REMARK   74  A    between atoms: _175  and  _176
REMARK   75  A    between atoms: _175  and  _178
REMARK   76  A    between atoms: _178  and  _179
REMARK   77  A    between atoms: _182  and  _184
REMARK   78  A    between atoms: _184  and  _185
REMARK   79  A    between atoms: _184  and  _187
REMARK   80  A    between atoms: _187  and  _188
REMARK   81  A    between atoms: _193  and  _194
REMARK   82  A    between atoms: _196  and  _198
REMARK   83  A    between atoms: _198  and  _199
REMARK   84  A    between atoms: _198  and  _201
REMARK   85  A    between atoms: _201  and  _202
REMARK   86  A    between atoms: _204  and  _206
REMARK   87  A    between atoms: _206  and  _207
REMARK   88  A    between atoms: _209  and  _211
REMARK   89  A    between atoms: _211  and  _212
REMARK   90  A    between atoms: _211  and  _214
REMARK   91  A    between atoms: _214  and  _215
REMARK   92  A    between atoms: _215  and  _216
REMARK   93  A    between atoms: _216  and  _217
REMARK   94  A    between atoms: _217  and  _218
REMARK   95  A    between atoms: _222  and  _224
REMARK   96  A    between atoms: _224  and  _225
REMARK   97  A    between atoms: _224  and  _227
REMARK   98  A    between atoms: _227  and  _228
REMARK   99  A    between atoms: _231  and  _233
REMARK  100  A    between atoms: _233  and  _234
REMARK  101  A    between atoms: _233  and  _236
REMARK  102  A    between atoms: _236  and  _237
REMARK  103  A    between atoms: _240  and  _242
REMARK  104  A    between atoms: _242  and  _243
REMARK  105  A    between atoms: _242  and  _245
REMARK  106  A    between atoms: _245  and  _246
REMARK  107  A    between atoms: _249  and  _251
REMARK  108  A    between atoms: _251  and  _252
REMARK  109  A    between atoms: _251  and  _254
REMARK  110  A    between atoms: _254  and  _255
REMARK  111  A    between atoms: _257  and  _259
REMARK  112  A    between atoms: _259  and  _260
REMARK  113  A    between atoms: _259  and  _262
REMARK  114  A    between atoms: _262  and  _263
REMARK  115  A    between atoms: _266  and  _268
REMARK  116  A    between atoms: _268  and  _269
REMARK  117  A    between atoms: _268  and  _271
REMARK  118  A    between atoms: _271  and  _272
REMARK  119  A    between atoms: _275  and  _277
REMARK  120  A    between atoms: _277  and  _278
REMARK  121  A    between atoms: _277  and  _280
REMARK  122  A    between atoms: _280  and  _281
REMARK  123  A    between atoms: _281  and  _282
REMARK  124  A    between atoms: _282  and  _283
REMARK  125  A    between atoms: _292  and  _294
REMARK  126  A    between atoms: _294  and  _295
REMARK  127  A    between atoms: _294  and  _297
REMARK  128  A    between atoms: _300  and  _302
REMARK  129  A    between atoms: _302  and  _303
REMARK  130  A    between atoms: _305  and  _307
REMARK  131  A    between atoms: _307  and  _308
REMARK  132  A    between atoms: _307  and  _310
REMARK  133  A    between atoms: _310  and  _311
REMARK  134  A    between atoms: _314  and  _316
REMARK  135  A    between atoms: _316  and  _317
REMARK  136  A    between atoms: _316  and  _319
REMARK  137  A    between atoms: _319  and  _320
REMARK  138  A    between atoms: _320  and  _321
REMARK  139  A    between atoms: _321  and  _322
REMARK  140  A    between atoms: _322  and  _323
REMARK  141  A    between atoms: _327  and  _329
REMARK  142  A    between atoms: _329  and  _330
REMARK  143  A    between atoms: _329  and  _332
REMARK  144  A    between atoms: _332  and  _333
REMARK  145  A    between atoms: _335  and  _337
REMARK  146  A    between atoms: _337  and  _338
REMARK  147  A    between atoms: _340  and  _342
REMARK  148  A    between atoms: _342  and  _343
REMARK  149  A    between atoms: _342  and  _345
REMARK  150  A    between atoms: _345  and  _346
REMARK  151  A    between atoms: _351  and  _352
REMARK  152  A    between atoms: _354  and  _356
REMARK  153  A    between atoms: _356  and  _357
REMARK  154  A    between atoms: _360  and  _362
REMARK  155  A    between atoms: _362  and  _363
REMARK  156  A    between atoms: _362  and  _365
REMARK  157  A    between atoms: _365  and  _366
REMARK  158  A    between atoms: _368  and  _370
REMARK  159  A    between atoms: _370  and  _371
REMARK  160  A    between atoms: _373  and  _375
REMARK  161  A    between atoms: _375  and  _376
REMARK  162  A    between atoms: _378  and  _380
REMARK  163  A    between atoms: _380  and  _381
REMARK  164  A    between atoms: _384  and  _386
REMARK  165  A    between atoms: _386  and  _387
REMARK  166  A    between atoms: _389  and  _391
REMARK  167  A    between atoms: _391  and  _392
REMARK  168  A    between atoms: _391  and  _394
REMARK  169  A    between atoms: _394  and  _395
REMARK  170  A    between atoms: _401  and  _403
REMARK  171  A    between atoms: _403  and  _404
REMARK  172  A    between atoms: _403  and  _406
REMARK  173  A    between atoms: _406  and  _407
REMARK  174  A    between atoms: _410  and  _412
REMARK  175  A    between atoms: _412  and  _413
REMARK  176  A    between atoms: _416  and  _418
REMARK  177  A    between atoms: _418  and  _419
REMARK  178  A    between atoms: _422  and  _424
REMARK  179  A    between atoms: _424  and  _425
REMARK  180  A    between atoms: _424  and  _427
REMARK  181  A    between atoms: _427  and  _428
REMARK  182  A    between atoms: _430  and  _432
REMARK  183  A    between atoms: _432  and  _433
REMARK  184  A    between atoms: _432  and  _435
REMARK  185  A    between atoms: _438  and  _440
REMARK  186  A    between atoms: _440  and  _441
REMARK  187  A    between atoms: _440  and  _443
REMARK  188  A    between atoms: _443  and  _444
REMARK  189  A    between atoms: _450  and  _452
REMARK  190  A    between atoms: _452  and  _453
REMARK  191  A    between atoms: _452  and  _455
REMARK  192  A    between atoms: _455  and  _456
REMARK  193  A    between atoms: _461  and  _463
REMARK  194  A    between atoms: _463  and  _464
REMARK  195  A    between atoms: _463  and  _466
REMARK  196  A    between atoms: _466  and  _467
REMARK                            x       y       z     vdW  Elec       q    Type
REMARK                         _______ _______ _______ _____ _____    ______ ____
ROOT
ATOM      1  O   HOH     1       8.120  22.928  13.422  0.00  0.00    +0.000 OA
ENDROOT
TORSDOF 0
REMARK  Name = ../refined-set-2016/4ewn/4ewn_pocket.pdb
REMARK  196 active torsions:
REMARK  status: ('A' for Active; 'I' for Inactive)
REMARK    1  A    between atoms: _1  and  _3
REMARK    2  A    between atoms: _3  and  _4
REMARK    3  A    between atoms: _3  and  _6
REMARK    4  A    between atoms: _6  and  _7
REMARK    5  A    between atoms: _10  and  _12
REMARK    6  A    between atoms: _12  and  _13
REMARK    7  A    between atoms: _16  and  _18
REMARK    8  A    between atoms: _18  and  _19
REMARK    9  A    between atoms: _18  and  _21
REMARK   10  A    between atoms: _23  and  _25
REMARK   11  A    between atoms: _25  and  _26
REMARK   12  A    between atoms: _25  and  _28
REMARK   13  A    between atoms: _28  and  _29
REMARK   14  A    between atoms: _32  and  _34
REMARK   15  A    between atoms: _34  and  _35
REMARK   16  A    between atoms: _34  and  _37
REMARK   17  A    between atoms: _37  and  _38
REMARK   18  A    between atoms: _41  and  _43
REMARK   19  A    between atoms: _43  and  _44
REMARK   20  A    between atoms: _43  and  _46
REMARK   21  A    between atoms: _49  and  _51
REMARK   22  A    between atoms: _51  and  _52
REMARK   23  A    between atoms: _51  and  _54
REMARK   24  A    between atoms: _54  and  _55
REMARK   25  A    between atoms: _58  and  _60
REMARK   26  A    between atoms: _60  and  _61
REMARK   27  A    between atoms: _60  and  _63
REMARK   28  A    between atoms: _63  and  _64
REMARK   29  A    between atoms: _67  and  _69
REMARK   30  A    between atoms: _69  and  _70
REMARK   31  A    between atoms: _69  and  _72
REMARK   32  A    between atoms: _72  and  _73
REMARK   33  A    between atoms: _76  and  _78
REMARK   34  A    between atoms: _78  and  _79
REMARK   35  A    between atoms: _81  and  _83
REMARK   36  A    between atoms: _83  and  _84
REMARK   37  A    between atoms: _86  and  _88
REMARK   38  A    between atoms: _88  and  _89
REMARK   39  A    between atoms: _91  and  _93
REMARK   40  A    between atoms: _93  and  _94
REMARK   41  A    between atoms: _93  and  _96
REMARK   42  A    between atoms: _96  and  _97
REMARK   43  A    between atoms: _99  and  _101
REMARK   44  A    between atoms: _101  and  _102
REMARK   45  A    between atoms: _101  and  _104
REMARK   46  A    between atoms: _104  and  _105
REMARK   47  A    between atoms: _110  and  _112
REMARK   48  A    between atoms: _112  and  _113
REMARK   49  A    between atoms: _112  and  _115
REMARK   50  A    between atoms: _115  and  _116
REMARK   51  A    between atoms: _119  and  _121
REMARK   52  A    between atoms: _121  and  _122
REMARK   53  A    between atoms: _125  and  _127
REMARK   54  A    between atoms: _127  and  _128
REMARK   55  A    between atoms: _127  and  _130
REMARK   56  A    between atoms: _130  and  _131
REMARK   57  A    between atoms: _134  and  _136
REMARK   58  A    between atoms: _136  and  _137
REMARK   59  A    between atoms: _136  and  _139
REMARK   60  A    between atoms: _142  and  _144
REMARK   61  A    between atoms: _144  and  _145
REMARK   62  A    between atoms: _148  and  _150
REMARK   63  A    between atoms: _150  and  _151
REMARK   64  A    between atoms: _150  and  _153
REMARK   65  A    between atoms: _153  and  _154
REMARK   66  A    between atoms: _154  and  _155
REMARK   67  A    between atoms: _155  and  _156
REMARK   68  A    between atoms: _156  and  _157
REMARK   69  A    between atoms: _161  and  _163
REMARK   70  A    between atoms: _163  and  _164
REMARK   71  A    between atoms: _163  and  _166
REMARK   72  A    between atoms: _166  and  _167
REMARK   73  A    between atoms: _173  and  _175
REMARK   74  A    between atoms: _175  and  _176
REMARK   75  A    between atoms: _175  and  _178
REMARK   76  A    between atoms: _178  and  _179
REMARK   77  A    between atoms: _182  and  _184
REMARK   78  A    between atoms: _184  and  _185
REMARK   79  A    between atoms: _184  and  _187
REMARK   80  A    between atoms: _187  and  _188
REMARK   81  A    between atoms: _193  and  _194
REMARK   82  A    between atoms: _196  and  _198
REMARK   83  A    between atoms: _198  and  _199
REMARK   84  A    between atoms: _198  and  _201
REMARK   85  A    between atoms: _201  and  _202
REMARK   86  A    between atoms: _204  and  _206
REMARK   87  A    between atoms: _206  and  _207
REMARK   88  A    between atoms: _209  and  _211
REMARK   89  A    between atoms: _211  and  _212
REMARK   90  A    between atoms: _211  and  _214
REMARK   91  A    between atoms: _214  and  _215
REMARK   92  A    between atoms: _215  and  _216
REMARK   93  A    between atoms: _216  and  _217
REMARK   94  A    between atoms: _217  and  _218
REMARK   95  A    between atoms: _222  and  _224
REMARK   96  A    between atoms: _224  and  _225
REMARK   97  A    between atoms: _224  and  _227
REMARK   98  A    between atoms: _227  and  _228
REMARK   99  A    between atoms: _231  and  _233
REMARK  100  A    between atoms: _233  and  _234
REMARK  101  A    between atoms: _233  and  _236
REMARK  102  A    between atoms: _236  and  _237
REMARK  103  A    between atoms: _240  and  _242
REMARK  104  A    between atoms: _242  and  _243
REMARK  105  A    between atoms: _242  and  _245
REMARK  106  A    between atoms: _245  and  _246
REMARK  107  A    between atoms: _249  and  _251
REMARK  108  A    between atoms: _251  and  _252
REMARK  109  A    between atoms: _251  and  _254
REMARK  110  A    between atoms: _254  and  _255
REMARK  111  A    between atoms: _257  and  _259
REMARK  112  A    between atoms: _259  and  _260
REMARK  113  A    between atoms: _259  and  _262
REMARK  114  A    between atoms: _262  and  _263
REMARK  115  A    between atoms: _266  and  _268
REMARK  116  A    between atoms: _268  and  _269
REMARK  117  A    between atoms: _268  and  _271
REMARK  118  A    between atoms: _271  and  _272
REMARK  119  A    between atoms: _275  and  _277
REMARK  120  A    between atoms: _277  and  _278
REMARK  121  A    between atoms: _277  and  _280
REMARK  122  A    between atoms: _280  and  _281
REMARK  123  A    between atoms: _281  and  _282
REMARK  124  A    between atoms: _282  and  _283
REMARK  125  A    between atoms: _292  and  _294
REMARK  126  A    between atoms: _294  and  _295
REMARK  127  A    between atoms: _294  and  _297
REMARK  128  A    between atoms: _300  and  _302
REMARK  129  A    between atoms: _302  and  _303
REMARK  130  A    between atoms: _305  and  _307
REMARK  131  A    between atoms: _307  and  _308
REMARK  132  A    between atoms: _307  and  _310
REMARK  133  A    between atoms: _310  and  _311
REMARK  134  A    between atoms: _314  and  _316
REMARK  135  A    between atoms: _316  and  _317
REMARK  136  A    between atoms: _316  and  _319
REMARK  137  A    between atoms: _319  and  _320
REMARK  138  A    between atoms: _320  and  _321
REMARK  139  A    between atoms: _321  and  _322
REMARK  140  A    between atoms: _322  and  _323
REMARK  141  A    between atoms: _327  and  _329
REMARK  142  A    between atoms: _329  and  _330
REMARK  143  A    between atoms: _329  and  _332
REMARK  144  A    between atoms: _332  and  _333
REMARK  145  A    between atoms: _335  and  _337
REMARK  146  A    between atoms: _337  and  _338
REMARK  147  A    between atoms: _340  and  _342
REMARK  148  A    between atoms: _342  and  _343
REMARK  149  A    between atoms: _342  and  _345
REMARK  150  A    between atoms: _345  and  _346
REMARK  151  A    between atoms: _351  and  _352
REMARK  152  A    between atoms: _354  and  _356
REMARK  153  A    between atoms: _356  and  _357
REMARK  154  A    between atoms: _360  and  _362
REMARK  155  A    between atoms: _362  and  _363
REMARK  156  A    between atoms: _362  and  _365
REMARK  157  A    between atoms: _365  and  _366
REMARK  158  A    between atoms: _368  and  _370
REMARK  159  A    between atoms: _370  and  _371
REMARK  160  A    between atoms: _373  and  _375
REMARK  161  A    between atoms: _375  and  _376
REMARK  162  A    between atoms: _378  and  _380
REMARK  163  A    between atoms: _380  and  _381
REMARK  164  A    between atoms: _384  and  _386
REMARK  165  A    between atoms: _386  and  _387
REMARK  166  A    between atoms: _389  and  _391
REMARK  167  A    between atoms: _391  and  _392
REMARK  168  A    between atoms: _391  and  _394
REMARK  169  A    between atoms: _394  and  _395
REMARK  170  A    between atoms: _401  and  _403
REMARK  171  A    between atoms: _403  and  _404
REMARK  172  A    between atoms: _403  and  _406
REMARK  173  A    between atoms: _406  and  _407
REMARK  174  A    between atoms: _410  and  _412
REMARK  175  A    between atoms: _412  and  _413
REMARK  176  A    between atoms: _416  and  _418
REMARK  177  A    between atoms: _418  and  _419
REMARK  178  A    between atoms: _422  and  _424
REMARK  179  A    between atoms: _424  and  _425
REMARK  180  A    between atoms: _424  and  _427
REMARK  181  A    between atoms: _427  and  _428
REMARK  182  A    between atoms: _430  and  _432
REMARK  183  A    between atoms: _432  and  _433
REMARK  184  A    between atoms: _432  and  _435
REMARK  185  A    between atoms: _438  and  _440
REMARK  186  A    between atoms: _440  and  _441
REMARK  187  A    between atoms: _440  and  _443
REMARK  188  A    between atoms: _443  and  _444
REMARK  189  A    between atoms: _450  and  _452
REMARK  190  A    between atoms: _452  and  _453
REMARK  191  A    between atoms: _452  and  _455
REMARK  192  A    between atoms: _455  and  _456
REMARK  193  A    between atoms: _461  and  _463
REMARK  194  A    between atoms: _463  and  _464
REMARK  195  A    between atoms: _463  and  _466
REMARK  196  A    between atoms: _466  and  _467
REMARK                            x       y       z     vdW  Elec       q    Type
REMARK                         _______ _______ _______ _____ _____    ______ ____
ROOT
ATOM      1  O   HOH     1      16.880  25.265  27.610  0.00  0.00    +0.000 OA
ENDROOT
TORSDOF 0
REMARK  Name = ../refined-set-2016/4ewn/4ewn_pocket.pdb
REMARK  196 active torsions:
REMARK  status: ('A' for Active; 'I' for Inactive)
REMARK    1  A    between atoms: _1  and  _3
REMARK    2  A    between atoms: _3  and  _4
REMARK    3  A    between atoms: _3  and  _6
REMARK    4  A    between atoms: _6  and  _7
REMARK    5  A    between atoms: _10  and  _12
REMARK    6  A    between atoms: _12  and  _13
REMARK    7  A    between atoms: _16  and  _18
REMARK    8  A    between atoms: _18  and  _19
REMARK    9  A    between atoms: _18  and  _21
REMARK   10  A    between atoms: _23  and  _25
REMARK   11  A    between atoms: _25  and  _26
REMARK   12  A    between atoms: _25  and  _28
REMARK   13  A    between atoms: _28  and  _29
REMARK   14  A    between atoms: _32  and  _34
REMARK   15  A    between atoms: _34  and  _35
REMARK   16  A    between atoms: _34  and  _37
REMARK   17  A    between atoms: _37  and  _38
REMARK   18  A    between atoms: _41  and  _43
REMARK   19  A    between atoms: _43  and  _44
REMARK   20  A    between atoms: _43  and  _46
REMARK   21  A    between atoms: _49  and  _51
REMARK   22  A    between atoms: _51  and  _52
REMARK   23  A    between atoms: _51  and  _54
REMARK   24  A    between atoms: _54  and  _55
REMARK   25  A    between atoms: _58  and  _60
REMARK   26  A    between atoms: _60  and  _61
REMARK   27  A    between atoms: _60  and  _63
REMARK   28  A    between atoms: _63  and  _64
REMARK   29  A    between atoms: _67  and  _69
REMARK   30  A    between atoms: _69  and  _70
REMARK   31  A    between atoms: _69  and  _72
REMARK   32  A    between atoms: _72  and  _73
REMARK   33  A    between atoms: _76  and  _78
REMARK   34  A    between atoms: _78  and  _79
REMARK   35  A    between atoms: _81  and  _83
REMARK   36  A    between atoms: _83  and  _84
REMARK   37  A    between atoms: _86  and  _88
REMARK   38  A    between atoms: _88  and  _89
REMARK   39  A    between atoms: _91  and  _93
REMARK   40  A    between atoms: _93  and  _94
REMARK   41  A    between atoms: _93  and  _96
REMARK   42  A    between atoms: _96  and  _97
REMARK   43  A    between atoms: _99  and  _101
REMARK   44  A    between atoms: _101  and  _102
REMARK   45  A    between atoms: _101  and  _104
REMARK   46  A    between atoms: _104  and  _105
REMARK   47  A    between atoms: _110  and  _112
REMARK   48  A    between atoms: _112  and  _113
REMARK   49  A    between atoms: _112  and  _115
REMARK   50  A    between atoms: _115  and  _116
REMARK   51  A    between atoms: _119  and  _121
REMARK   52  A    between atoms: _121  and  _122
REMARK   53  A    between atoms: _125  and  _127
REMARK   54  A    between atoms: _127  and  _128
REMARK   55  A    between atoms: _127  and  _130
REMARK   56  A    between atoms: _130  and  _131
REMARK   57  A    between atoms: _134  and  _136
REMARK   58  A    between atoms: _136  and  _137
REMARK   59  A    between atoms: _136  and  _139
REMARK   60  A    between atoms: _142  and  _144
REMARK   61  A    between atoms: _144  and  _145
REMARK   62  A    between atoms: _148  and  _150
REMARK   63  A    between atoms: _150  and  _151
REMARK   64  A    between atoms: _150  and  _153
REMARK   65  A    between atoms: _153  and  _154
REMARK   66  A    between atoms: _154  and  _155
REMARK   67  A    between atoms: _155  and  _156
REMARK   68  A    between atoms: _156  and  _157
REMARK   69  A    between atoms: _161  and  _163
REMARK   70  A    between atoms: _163  and  _164
REMARK   71  A    between atoms: _163  and  _166
REMARK   72  A    between atoms: _166  and  _167
REMARK   73  A    between atoms: _173  and  _175
REMARK   74  A    between atoms: _175  and  _176
REMARK   75  A    between atoms: _175  and  _178
REMARK   76  A    between atoms: _178  and  _179
REMARK   77  A    between atoms: _182  and  _184
REMARK   78  A    between atoms: _184  and  _185
REMARK   79  A    between atoms: _184  and  _187
REMARK   80  A    between atoms: _187  and  _188
REMARK   81  A    between atoms: _193  and  _194
REMARK   82  A    between atoms: _196  and  _198
REMARK   83  A    between atoms: _198  and  _199
REMARK   84  A    between atoms: _198  and  _201
REMARK   85  A    between atoms: _201  and  _202
REMARK   86  A    between atoms: _204  and  _206
REMARK   87  A    between atoms: _206  and  _207
REMARK   88  A    between atoms: _209  and  _211
REMARK   89  A    between atoms: _211  and  _212
REMARK   90  A    between atoms: _211  and  _214
REMARK   91  A    between atoms: _214  and  _215
REMARK   92  A    between atoms: _215  and  _216
REMARK   93  A    between atoms: _216  and  _217
REMARK   94  A    between atoms: _217  and  _218
REMARK   95  A    between atoms: _222  and  _224
REMARK   96  A    between atoms: _224  and  _225
REMARK   97  A    between atoms: _224  and  _227
REMARK   98  A    between atoms: _227  and  _228
REMARK   99  A    between atoms: _231  and  _233
REMARK  100  A    between atoms: _233  and  _234
REMARK  101  A    between atoms: _233  and  _236
REMARK  102  A    between atoms: _236  and  _237
REMARK  103  A    between atoms: _240  and  _242
REMARK  104  A    between atoms: _242  and  _243
REMARK  105  A    between atoms: _242  and  _245
REMARK  106  A    between atoms: _245  and  _246
REMARK  107  A    between atoms: _249  and  _251
REMARK  108  A    between atoms: _251  and  _252
REMARK  109  A    between atoms: _251  and  _254
REMARK  110  A    between atoms: _254  and  _255
REMARK  111  A    between atoms: _257  and  _259
REMARK  112  A    between atoms: _259  and  _260
REMARK  113  A    between atoms: _259  and  _262
REMARK  114  A    between atoms: _262  and  _263
REMARK  115  A    between atoms: _266  and  _268
REMARK  116  A    between atoms: _268  and  _269
REMARK  117  A    between atoms: _268  and  _271
REMARK  118  A    between atoms: _271  and  _272
REMARK  119  A    between atoms: _275  and  _277
REMARK  120  A    between atoms: _277  and  _278
REMARK  121  A    between atoms: _277  and  _280
REMARK  122  A    between atoms: _280  and  _281
REMARK  123  A    between atoms: _281  and  _282
REMARK  124  A    between atoms: _282  and  _283
REMARK  125  A    between atoms: _292  and  _294
REMARK  126  A    between atoms: _294  and  _295
REMARK  127  A    between atoms: _294  and  _297
REMARK  128  A    between atoms: _300  and  _302
REMARK  129  A    between atoms: _302  and  _303
REMARK  130  A    between atoms: _305  and  _307
REMARK  131  A    between atoms: _307  and  _308
REMARK  132  A    between atoms: _307  and  _310
REMARK  133  A    between atoms: _310  and  _311
REMARK  134  A    between atoms: _314  and  _316
REMARK  135  A    between atoms: _316  and  _317
REMARK  136  A    between atoms: _316  and  _319
REMARK  137  A    between atoms: _319  and  _320
REMARK  138  A    between atoms: _320  and  _321
REMARK  139  A    between atoms: _321  and  _322
REMARK  140  A    between atoms: _322  and  _323
REMARK  141  A    between atoms: _327  and  _329
REMARK  142  A    between atoms: _329  and  _330
REMARK  143  A    between atoms: _329  and  _332
REMARK  144  A    between atoms: _332  and  _333
REMARK  145  A    between atoms: _335  and  _337
REMARK  146  A    between atoms: _337  and  _338
REMARK  147  A    between atoms: _340  and  _342
REMARK  148  A    between atoms: _342  and  _343
REMARK  149  A    between atoms: _342  and  _345
REMARK  150  A    between atoms: _345  and  _346
REMARK  151  A    between atoms: _351  and  _352
REMARK  152  A    between atoms: _354  and  _356
REMARK  153  A    between atoms: _356  and  _357
REMARK  154  A    between atoms: _360  and  _362
REMARK  155  A    between atoms: _362  and  _363
REMARK  156  A    between atoms: _362  and  _365
REMARK  157  A    between atoms: _365  and  _366
REMARK  158  A    between atoms: _368  and  _370
REMARK  159  A    between atoms: _370  and  _371
REMARK  160  A    between atoms: _373  and  _375
REMARK  161  A    between atoms: _375  and  _376
REMARK  162  A    between atoms: _378  and  _380
REMARK  163  A    between atoms: _380  and  _381
REMARK  164  A    between atoms: _384  and  _386
REMARK  165  A    between atoms: _386  and  _387
REMARK  166  A    between atoms: _389  and  _391
REMARK  167  A    between atoms: _391  and  _392
REMARK  168  A    between atoms: _391  and  _394
REMARK  169  A    between atoms: _394  and  _395
REMARK  170  A    between atoms: _401  and  _403
REMARK  171  A    between atoms: _403  and  _404
REMARK  172  A    between atoms: _403  and  _406
REMARK  173  A    between atoms: _406  and  _407
REMARK  174  A    between atoms: _410  and  _412
REMARK  175  A    between atoms: _412  and  _413
REMARK  176  A    between atoms: _416  and  _418
REMARK  177  A    between atoms: _418  and  _419
REMARK  178  A    between atoms: _422  and  _424
REMARK  179  A    between atoms: _424  and  _425
REMARK  180  A    between atoms: _424  and  _427
REMARK  181  A    between atoms: _427  and  _428
REMARK  182  A    between atoms: _430  and  _432
REMARK  183  A    between atoms: _432  and  _433
REMARK  184  A    between atoms: _432  and  _435
REMARK  185  A    between atoms: _438  and  _440
REMARK  186  A    between atoms: _440  and  _441
REMARK  187  A    between atoms: _440  and  _443
REMARK  188  A    between atoms: _443  and  _444
REMARK  189  A    between atoms: _450  and  _452
REMARK  190  A    between atoms: _452  and  _453
REMARK  191  A    between atoms: _452  and  _455
REMARK  192  A    between atoms: _455  and  _456
REMARK  193  A    between atoms: _461  and  _463
REMARK  194  A    between atoms: _463  and  _464
REMARK  195  A    between atoms: _463  and  _466
REMARK  196  A    between atoms: _466  and  _467
REMARK                            x       y       z     vdW  Elec       q    Type
REMARK                         _______ _______ _______ _____ _____    ______ ____
ROOT
ATOM      1  O   HOH     1       8.331  25.894  19.055  0.00  0.00    +0.000 OA
ENDROOT
TORSDOF 0
REMARK  Name = ../refined-set-2016/4ewn/4ewn_pocket.pdb
REMARK  196 active torsions:
REMARK  status: ('A' for Active; 'I' for Inactive)
REMARK    1  A    between atoms: _1  and  _3
REMARK    2  A    between atoms: _3  and  _4
REMARK    3  A    between atoms: _3  and  _6
REMARK    4  A    between atoms: _6  and  _7
REMARK    5  A    between atoms: _10  and  _12
REMARK    6  A    between atoms: _12  and  _13
REMARK    7  A    between atoms: _16  and  _18
REMARK    8  A    between atoms: _18  and  _19
REMARK    9  A    between atoms: _18  and  _21
REMARK   10  A    between atoms: _23  and  _25
REMARK   11  A    between atoms: _25  and  _26
REMARK   12  A    between atoms: _25  and  _28
REMARK   13  A    between atoms: _28  and  _29
REMARK   14  A    between atoms: _32  and  _34
REMARK   15  A    between atoms: _34  and  _35
REMARK   16  A    between atoms: _34  and  _37
REMARK   17  A    between atoms: _37  and  _38
REMARK   18  A    between atoms: _41  and  _43
REMARK   19  A    between atoms: _43  and  _44
REMARK   20  A    between atoms: _43  and  _46
REMARK   21  A    between atoms: _49  and  _51
REMARK   22  A    between atoms: _51  and  _52
REMARK   23  A    between atoms: _51  and  _54
REMARK   24  A    between atoms: _54  and  _55
REMARK   25  A    between atoms: _58  and  _60
REMARK   26  A    between atoms: _60  and  _61
REMARK   27  A    between atoms: _60  and  _63
REMARK   28  A    between atoms: _63  and  _64
REMARK   29  A    between atoms: _67  and  _69
REMARK   30  A    between atoms: _69  and  _70
REMARK   31  A    between atoms: _69  and  _72
REMARK   32  A    between atoms: _72  and  _73
REMARK   33  A    between atoms: _76  and  _78
REMARK   34  A    between atoms: _78  and  _79
REMARK   35  A    between atoms: _81  and  _83
REMARK   36  A    between atoms: _83  and  _84
REMARK   37  A    between atoms: _86  and  _88
REMARK   38  A    between atoms: _88  and  _89
REMARK   39  A    between atoms: _91  and  _93
REMARK   40  A    between atoms: _93  and  _94
REMARK   41  A    between atoms: _93  and  _96
REMARK   42  A    between atoms: _96  and  _97
REMARK   43  A    between atoms: _99  and  _101
REMARK   44  A    between atoms: _101  and  _102
REMARK   45  A    between atoms: _101  and  _104
REMARK   46  A    between atoms: _104  and  _105
REMARK   47  A    between atoms: _110  and  _112
REMARK   48  A    between atoms: _112  and  _113
REMARK   49  A    between atoms: _112  and  _115
REMARK   50  A    between atoms: _115  and  _116
REMARK   51  A    between atoms: _119  and  _121
REMARK   52  A    between atoms: _121  and  _122
REMARK   53  A    between atoms: _125  and  _127
REMARK   54  A    between atoms: _127  and  _128
REMARK   55  A    between atoms: _127  and  _130
REMARK   56  A    between atoms: _130  and  _131
REMARK   57  A    between atoms: _134  and  _136
REMARK   58  A    between atoms: _136  and  _137
REMARK   59  A    between atoms: _136  and  _139
REMARK   60  A    between atoms: _142  and  _144
REMARK   61  A    between atoms: _144  and  _145
REMARK   62  A    between atoms: _148  and  _150
REMARK   63  A    between atoms: _150  and  _151
REMARK   64  A    between atoms: _150  and  _153
REMARK   65  A    between atoms: _153  and  _154
REMARK   66  A    between atoms: _154  and  _155
REMARK   67  A    between atoms: _155  and  _156
REMARK   68  A    between atoms: _156  and  _157
REMARK   69  A    between atoms: _161  and  _163
REMARK   70  A    between atoms: _163  and  _164
REMARK   71  A    between atoms: _163  and  _166
REMARK   72  A    between atoms: _166  and  _167
REMARK   73  A    between atoms: _173  and  _175
REMARK   74  A    between atoms: _175  and  _176
REMARK   75  A    between atoms: _175  and  _178
REMARK   76  A    between atoms: _178  and  _179
REMARK   77  A    between atoms: _182  and  _184
REMARK   78  A    between atoms: _184  and  _185
REMARK   79  A    between atoms: _184  and  _187
REMARK   80  A    between atoms: _187  and  _188
REMARK   81  A    between atoms: _193  and  _194
REMARK   82  A    between atoms: _196  and  _198
REMARK   83  A    between atoms: _198  and  _199
REMARK   84  A    between atoms: _198  and  _201
REMARK   85  A    between atoms: _201  and  _202
REMARK   86  A    between atoms: _204  and  _206
REMARK   87  A    between atoms: _206  and  _207
REMARK   88  A    between atoms: _209  and  _211
REMARK   89  A    between atoms: _211  and  _212
REMARK   90  A    between atoms: _211  and  _214
REMARK   91  A    between atoms: _214  and  _215
REMARK   92  A    between atoms: _215  and  _216
REMARK   93  A    between atoms: _216  and  _217
REMARK   94  A    between atoms: _217  and  _218
REMARK   95  A    between atoms: _222  and  _224
REMARK   96  A    between atoms: _224  and  _225
REMARK   97  A    between atoms: _224  and  _227
REMARK   98  A    between atoms: _227  and  _228
REMARK   99  A    between atoms: _231  and  _233
REMARK  100  A    between atoms: _233  and  _234
REMARK  101  A    between atoms: _233  and  _236
REMARK  102  A    between atoms: _236  and  _237
REMARK  103  A    between atoms: _240  and  _242
REMARK  104  A    between atoms: _242  and  _243
REMARK  105  A    between atoms: _242  and  _245
REMARK  106  A    between atoms: _245  and  _246
REMARK  107  A    between atoms: _249  and  _251
REMARK  108  A    between atoms: _251  and  _252
REMARK  109  A    between atoms: _251  and  _254
REMARK  110  A    between atoms: _254  and  _255
REMARK  111  A    between atoms: _257  and  _259
REMARK  112  A    between atoms: _259  and  _260
REMARK  113  A    between atoms: _259  and  _262
REMARK  114  A    between atoms: _262  and  _263
REMARK  115  A    between atoms: _266  and  _268
REMARK  116  A    between atoms: _268  and  _269
REMARK  117  A    between atoms: _268  and  _271
REMARK  118  A    between atoms: _271  and  _272
REMARK  119  A    between atoms: _275  and  _277
REMARK  120  A    between atoms: _277  and  _278
REMARK  121  A    between atoms: _277  and  _280
REMARK  122  A    between atoms: _280  and  _281
REMARK  123  A    between atoms: _281  and  _282
REMARK  124  A    between atoms: _282  and  _283
REMARK  125  A    between atoms: _292  and  _294
REMARK  126  A    between atoms: _294  and  _295
REMARK  127  A    between atoms: _294  and  _297
REMARK  128  A    between atoms: _300  and  _302
REMARK  129  A    between atoms: _302  and  _303
REMARK  130  A    between atoms: _305  and  _307
REMARK  131  A    between atoms: _307  and  _308
REMARK  132  A    between atoms: _307  and  _310
REMARK  133  A    between atoms: _310  and  _311
REMARK  134  A    between atoms: _314  and  _316
REMARK  135  A    between atoms: _316  and  _317
REMARK  136  A    between atoms: _316  and  _319
REMARK  137  A    between atoms: _319  and  _320
REMARK  138  A    between atoms: _320  and  _321
REMARK  139  A    between atoms: _321  and  _322
REMARK  140  A    between atoms: _322  and  _323
REMARK  141  A    between atoms: _327  and  _329
REMARK  142  A    between atoms: _329  and  _330
REMARK  143  A    between atoms: _329  and  _332
REMARK  144  A    between atoms: _332  and  _333
REMARK  145  A    between atoms: _335  and  _337
REMARK  146  A    between atoms: _337  and  _338
REMARK  147  A    between atoms: _340  and  _342
REMARK  148  A    between atoms: _342  and  _343
REMARK  149  A    between atoms: _342  and  _345
REMARK  150  A    between atoms: _345  and  _346
REMARK  151  A    between atoms: _351  and  _352
REMARK  152  A    between atoms: _354  and  _356
REMARK  153  A    between atoms: _356  and  _357
REMARK  154  A    between atoms: _360  and  _362
REMARK  155  A    between atoms: _362  and  _363
REMARK  156  A    between atoms: _362  and  _365
REMARK  157  A    between atoms: _365  and  _366
REMARK  158  A    between atoms: _368  and  _370
REMARK  159  A    between atoms: _370  and  _371
REMARK  160  A    between atoms: _373  and  _375
REMARK  161  A    between atoms: _375  and  _376
REMARK  162  A    between atoms: _378  and  _380
REMARK  163  A    between atoms: _380  and  _381
REMARK  164  A    between atoms: _384  and  _386
REMARK  165  A    between atoms: _386  and  _387
REMARK  166  A    between atoms: _389  and  _391
REMARK  167  A    between atoms: _391  and  _392
REMARK  168  A    between atoms: _391  and  _394
REMARK  169  A    between atoms: _394  and  _395
REMARK  170  A    between atoms: _401  and  _403
REMARK  171  A    between atoms: _403  and  _404
REMARK  172  A    between atoms: _403  and  _406
REMARK  173  A    between atoms: _406  and  _407
REMARK  174  A    between atoms: _410  and  _412
REMARK  175  A    between atoms: _412  and  _413
REMARK  176  A    between atoms: _416  and  _418
REMARK  177  A    between atoms: _418  and  _419
REMARK  178  A    between atoms: _422  and  _424
REMARK  179  A    between atoms: _424  and  _425
REMARK  180  A    between atoms: _424  and  _427
REMARK  181  A    between atoms: _427  and  _428
REMARK  182  A    between atoms: _430  and  _432
REMARK  183  A    between atoms: _432  and  _433
REMARK  184  A    between atoms: _432  and  _435
REMARK  185  A    between atoms: _438  and  _440
REMARK  186  A    between atoms: _440  and  _441
REMARK  187  A    between atoms: _440  and  _443
REMARK  188  A    between atoms: _443  and  _444
REMARK  189  A    between atoms: _450  and  _452
REMARK  190  A    between atoms: _452  and  _453
REMARK  191  A    between atoms: _452  and  _455
REMARK  192  A    between atoms: _455  and  _456
REMARK  193  A    between atoms: _461  and  _463
REMARK  194  A    between atoms: _463  and  _464
REMARK  195  A    between atoms: _463  and  _466
REMARK  196  A    between atoms: _466  and  _467
REMARK                            x       y       z     vdW  Elec       q    Type
REMARK                         _______ _______ _______ _____ _____    ______ ____
ROOT
ATOM      1  O   HOH     1       9.095  18.892  14.721  0.00  0.00    +0.000 OA
ENDROOT
TORSDOF 0
REMARK  Name = ../refined-set-2016/4ewn/4ewn_pocket.pdb
REMARK  196 active torsions:
REMARK  status: ('A' for Active; 'I' for Inactive)
REMARK    1  A    between atoms: _1  and  _3
REMARK    2  A    between atoms: _3  and  _4
REMARK    3  A    between atoms: _3  and  _6
REMARK    4  A    between atoms: _6  and  _7
REMARK    5  A    between atoms: _10  and  _12
REMARK    6  A    between atoms: _12  and  _13
REMARK    7  A    between atoms: _16  and  _18
REMARK    8  A    between atoms: _18  and  _19
REMARK    9  A    between atoms: _18  and  _21
REMARK   10  A    between atoms: _23  and  _25
REMARK   11  A    between atoms: _25  and  _26
REMARK   12  A    between atoms: _25  and  _28
REMARK   13  A    between atoms: _28  and  _29
REMARK   14  A    between atoms: _32  and  _34
REMARK   15  A    between atoms: _34  and  _35
REMARK   16  A    between atoms: _34  and  _37
REMARK   17  A    between atoms: _37  and  _38
REMARK   18  A    between atoms: _41  and  _43
REMARK   19  A    between atoms: _43  and  _44
REMARK   20  A    between atoms: _43  and  _46
REMARK   21  A    between atoms: _49  and  _51
REMARK   22  A    between atoms: _51  and  _52
REMARK   23  A    between atoms: _51  and  _54
REMARK   24  A    between atoms: _54  and  _55
REMARK   25  A    between atoms: _58  and  _60
REMARK   26  A    between atoms: _60  and  _61
REMARK   27  A    between atoms: _60  and  _63
REMARK   28  A    between atoms: _63  and  _64
REMARK   29  A    between atoms: _67  and  _69
REMARK   30  A    between atoms: _69  and  _70
REMARK   31  A    between atoms: _69  and  _72
REMARK   32  A    between atoms: _72  and  _73
REMARK   33  A    between atoms: _76  and  _78
REMARK   34  A    between atoms: _78  and  _79
REMARK   35  A    between atoms: _81  and  _83
REMARK   36  A    between atoms: _83  and  _84
REMARK   37  A    between atoms: _86  and  _88
REMARK   38  A    between atoms: _88  and  _89
REMARK   39  A    between atoms: _91  and  _93
REMARK   40  A    between atoms: _93  and  _94
REMARK   41  A    between atoms: _93  and  _96
REMARK   42  A    between atoms: _96  and  _97
REMARK   43  A    between atoms: _99  and  _101
REMARK   44  A    between atoms: _101  and  _102
REMARK   45  A    between atoms: _101  and  _104
REMARK   46  A    between atoms: _104  and  _105
REMARK   47  A    between atoms: _110  and  _112
REMARK   48  A    between atoms: _112  and  _113
REMARK   49  A    between atoms: _112  and  _115
REMARK   50  A    between atoms: _115  and  _116
REMARK   51  A    between atoms: _119  and  _121
REMARK   52  A    between atoms: _121  and  _122
REMARK   53  A    between atoms: _125  and  _127
REMARK   54  A    between atoms: _127  and  _128
REMARK   55  A    between atoms: _127  and  _130
REMARK   56  A    between atoms: _130  and  _131
REMARK   57  A    between atoms: _134  and  _136
REMARK   58  A    between atoms: _136  and  _137
REMARK   59  A    between atoms: _136  and  _139
REMARK   60  A    between atoms: _142  and  _144
REMARK   61  A    between atoms: _144  and  _145
REMARK   62  A    between atoms: _148  and  _150
REMARK   63  A    between atoms: _150  and  _151
REMARK   64  A    between atoms: _150  and  _153
REMARK   65  A    between atoms: _153  and  _154
REMARK   66  A    between atoms: _154  and  _155
REMARK   67  A    between atoms: _155  and  _156
REMARK   68  A    between atoms: _156  and  _157
REMARK   69  A    between atoms: _161  and  _163
REMARK   70  A    between atoms: _163  and  _164
REMARK   71  A    between atoms: _163  and  _166
REMARK   72  A    between atoms: _166  and  _167
REMARK   73  A    between atoms: _173  and  _175
REMARK   74  A    between atoms: _175  and  _176
REMARK   75  A    between atoms: _175  and  _178
REMARK   76  A    between atoms: _178  and  _179
REMARK   77  A    between atoms: _182  and  _184
REMARK   78  A    between atoms: _184  and  _185
REMARK   79  A    between atoms: _184  and  _187
REMARK   80  A    between atoms: _187  and  _188
REMARK   81  A    between atoms: _193  and  _194
REMARK   82  A    between atoms: _196  and  _198
REMARK   83  A    between atoms: _198  and  _199
REMARK   84  A    between atoms: _198  and  _201
REMARK   85  A    between atoms: _201  and  _202
REMARK   86  A    between atoms: _204  and  _206
REMARK   87  A    between atoms: _206  and  _207
REMARK   88  A    between atoms: _209  and  _211
REMARK   89  A    between atoms: _211  and  _212
REMARK   90  A    between atoms: _211  and  _214
REMARK   91  A    between atoms: _214  and  _215
REMARK   92  A    between atoms: _215  and  _216
REMARK   93  A    between atoms: _216  and  _217
REMARK   94  A    between atoms: _217  and  _218
REMARK   95  A    between atoms: _222  and  _224
REMARK   96  A    between atoms: _224  and  _225
REMARK   97  A    between atoms: _224  and  _227
REMARK   98  A    between atoms: _227  and  _228
REMARK   99  A    between atoms: _231  and  _233
REMARK  100  A    between atoms: _233  and  _234
REMARK  101  A    between atoms: _233  and  _236
REMARK  102  A    between atoms: _236  and  _237
REMARK  103  A    between atoms: _240  and  _242
REMARK  104  A    between atoms: _242  and  _243
REMARK  105  A    between atoms: _242  and  _245
REMARK  106  A    between atoms: _245  and  _246
REMARK  107  A    between atoms: _249  and  _251
REMARK  108  A    between atoms: _251  and  _252
REMARK  109  A    between atoms: _251  and  _254
REMARK  110  A    between atoms: _254  and  _255
REMARK  111  A    between atoms: _257  and  _259
REMARK  112  A    between atoms: _259  and  _260
REMARK  113  A    between atoms: _259  and  _262
REMARK  114  A    between atoms: _262  and  _263
REMARK  115  A    between atoms: _266  and  _268
REMARK  116  A    between atoms: _268  and  _269
REMARK  117  A    between atoms: _268  and  _271
REMARK  118  A    between atoms: _271  and  _272
REMARK  119  A    between atoms: _275  and  _277
REMARK  120  A    between atoms: _277  and  _278
REMARK  121  A    between atoms: _277  and  _280
REMARK  122  A    between atoms: _280  and  _281
REMARK  123  A    between atoms: _281  and  _282
REMARK  124  A    between atoms: _282  and  _283
REMARK  125  A    between atoms: _292  and  _294
REMARK  126  A    between atoms: _294  and  _295
REMARK  127  A    between atoms: _294  and  _297
REMARK  128  A    between atoms: _300  and  _302
REMARK  129  A    between atoms: _302  and  _303
REMARK  130  A    between atoms: _305  and  _307
REMARK  131  A    between atoms: _307  and  _308
REMARK  132  A    between atoms: _307  and  _310
REMARK  133  A    between atoms: _310  and  _311
REMARK  134  A    between atoms: _314  and  _316
REMARK  135  A    between atoms: _316  and  _317
REMARK  136  A    between atoms: _316  and  _319
REMARK  137  A    between atoms: _319  and  _320
REMARK  138  A    between atoms: _320  and  _321
REMARK  139  A    between atoms: _321  and  _322
REMARK  140  A    between atoms: _322  and  _323
REMARK  141  A    between atoms: _327  and  _329
REMARK  142  A    between atoms: _329  and  _330
REMARK  143  A    between atoms: _329  and  _332
REMARK  144  A    between atoms: _332  and  _333
REMARK  145  A    between atoms: _335  and  _337
REMARK  146  A    between atoms: _337  and  _338
REMARK  147  A    between atoms: _340  and  _342
REMARK  148  A    between atoms: _342  and  _343
REMARK  149  A    between atoms: _342  and  _345
REMARK  150  A    between atoms: _345  and  _346
REMARK  151  A    between atoms: _351  and  _352
REMARK  152  A    between atoms: _354  and  _356
REMARK  153  A    between atoms: _356  and  _357
REMARK  154  A    between atoms: _360  and  _362
REMARK  155  A    between atoms: _362  and  _363
REMARK  156  A    between atoms: _362  and  _365
REMARK  157  A    between atoms: _365  and  _366
REMARK  158  A    between atoms: _368  and  _370
REMARK  159  A    between atoms: _370  and  _371
REMARK  160  A    between atoms: _373  and  _375
REMARK  161  A    between atoms: _375  and  _376
REMARK  162  A    between atoms: _378  and  _380
REMARK  163  A    between atoms: _380  and  _381
REMARK  164  A    between atoms: _384  and  _386
REMARK  165  A    between atoms: _386  and  _387
REMARK  166  A    between atoms: _389  and  _391
REMARK  167  A    between atoms: _391  and  _392
REMARK  168  A    between atoms: _391  and  _394
REMARK  169  A    between atoms: _394  and  _395
REMARK  170  A    between atoms: _401  and  _403
REMARK  171  A    between atoms: _403  and  _404
REMARK  172  A    between atoms: _403  and  _406
REMARK  173  A    between atoms: _406  and  _407
REMARK  174  A    between atoms: _410  and  _412
REMARK  175  A    between atoms: _412  and  _413
REMARK  176  A    between atoms: _416  and  _418
REMARK  177  A    between atoms: _418  and  _419
REMARK  178  A    between atoms: _422  and  _424
REMARK  179  A    between atoms: _424  and  _425
REMARK  180  A    between atoms: _424  and  _427
REMARK  181  A    between atoms: _427  and  _428
REMARK  182  A    between atoms: _430  and  _432
REMARK  183  A    between atoms: _432  and  _433
REMARK  184  A    between atoms: _432  and  _435
REMARK  185  A    between atoms: _438  and  _440
REMARK  186  A    between atoms: _440  and  _441
REMARK  187  A    between atoms: _440  and  _443
REMARK  188  A    between atoms: _443  and  _444
REMARK  189  A    between atoms: _450  and  _452
REMARK  190  A    between atoms: _452  and  _453
REMARK  191  A    between atoms: _452  and  _455
REMARK  192  A    between atoms: _455  and  _456
REMARK  193  A    between atoms: _461  and  _463
REMARK  194  A    between atoms: _463  and  _464
REMARK  195  A    between atoms: _463  and  _466
REMARK  196  A    between atoms: _466  and  _467
REMARK                            x       y       z     vdW  Elec       q    Type
REMARK                         _______ _______ _______ _____ _____    ______ ____
ROOT
ATOM      1  O   HOH     1       8.754  19.283  11.602  0.00  0.00    +0.000 OA
ENDROOT
TORSDOF 0
REMARK  Name = ../refined-set-2016/4ewn/4ewn_pocket.pdb
REMARK  196 active torsions:
REMARK  status: ('A' for Active; 'I' for Inactive)
REMARK    1  A    between atoms: _1  and  _3
REMARK    2  A    between atoms: _3  and  _4
REMARK    3  A    between atoms: _3  and  _6
REMARK    4  A    between atoms: _6  and  _7
REMARK    5  A    between atoms: _10  and  _12
REMARK    6  A    between atoms: _12  and  _13
REMARK    7  A    between atoms: _16  and  _18
REMARK    8  A    between atoms: _18  and  _19
REMARK    9  A    between atoms: _18  and  _21
REMARK   10  A    between atoms: _23  and  _25
REMARK   11  A    between atoms: _25  and  _26
REMARK   12  A    between atoms: _25  and  _28
REMARK   13  A    between atoms: _28  and  _29
REMARK   14  A    between atoms: _32  and  _34
REMARK   15  A    between atoms: _34  and  _35
REMARK   16  A    between atoms: _34  and  _37
REMARK   17  A    between atoms: _37  and  _38
REMARK   18  A    between atoms: _41  and  _43
REMARK   19  A    between atoms: _43  and  _44
REMARK   20  A    between atoms: _43  and  _46
REMARK   21  A    between atoms: _49  and  _51
REMARK   22  A    between atoms: _51  and  _52
REMARK   23  A    between atoms: _51  and  _54
REMARK   24  A    between atoms: _54  and  _55
REMARK   25  A    between atoms: _58  and  _60
REMARK   26  A    between atoms: _60  and  _61
REMARK   27  A    between atoms: _60  and  _63
REMARK   28  A    between atoms: _63  and  _64
REMARK   29  A    between atoms: _67  and  _69
REMARK   30  A    between atoms: _69  and  _70
REMARK   31  A    between atoms: _69  and  _72
REMARK   32  A    between atoms: _72  and  _73
REMARK   33  A    between atoms: _76  and  _78
REMARK   34  A    between atoms: _78  and  _79
REMARK   35  A    between atoms: _81  and  _83
REMARK   36  A    between atoms: _83  and  _84
REMARK   37  A    between atoms: _86  and  _88
REMARK   38  A    between atoms: _88  and  _89
REMARK   39  A    between atoms: _91  and  _93
REMARK   40  A    between atoms: _93  and  _94
REMARK   41  A    between atoms: _93  and  _96
REMARK   42  A    between atoms: _96  and  _97
REMARK   43  A    between atoms: _99  and  _101
REMARK   44  A    between atoms: _101  and  _102
REMARK   45  A    between atoms: _101  and  _104
REMARK   46  A    between atoms: _104  and  _105
REMARK   47  A    between atoms: _110  and  _112
REMARK   48  A    between atoms: _112  and  _113
REMARK   49  A    between atoms: _112  and  _115
REMARK   50  A    between atoms: _115  and  _116
REMARK   51  A    between atoms: _119  and  _121
REMARK   52  A    between atoms: _121  and  _122
REMARK   53  A    between atoms: _125  and  _127
REMARK   54  A    between atoms: _127  and  _128
REMARK   55  A    between atoms: _127  and  _130
REMARK   56  A    between atoms: _130  and  _131
REMARK   57  A    between atoms: _134  and  _136
REMARK   58  A    between atoms: _136  and  _137
REMARK   59  A    between atoms: _136  and  _139
REMARK   60  A    between atoms: _142  and  _144
REMARK   61  A    between atoms: _144  and  _145
REMARK   62  A    between atoms: _148  and  _150
REMARK   63  A    between atoms: _150  and  _151
REMARK   64  A    between atoms: _150  and  _153
REMARK   65  A    between atoms: _153  and  _154
REMARK   66  A    between atoms: _154  and  _155
REMARK   67  A    between atoms: _155  and  _156
REMARK   68  A    between atoms: _156  and  _157
REMARK   69  A    between atoms: _161  and  _163
REMARK   70  A    between atoms: _163  and  _164
REMARK   71  A    between atoms: _163  and  _166
REMARK   72  A    between atoms: _166  and  _167
REMARK   73  A    between atoms: _173  and  _175
REMARK   74  A    between atoms: _175  and  _176
REMARK   75  A    between atoms: _175  and  _178
REMARK   76  A    between atoms: _178  and  _179
REMARK   77  A    between atoms: _182  and  _184
REMARK   78  A    between atoms: _184  and  _185
REMARK   79  A    between atoms: _184  and  _187
REMARK   80  A    between atoms: _187  and  _188
REMARK   81  A    between atoms: _193  and  _194
REMARK   82  A    between atoms: _196  and  _198
REMARK   83  A    between atoms: _198  and  _199
REMARK   84  A    between atoms: _198  and  _201
REMARK   85  A    between atoms: _201  and  _202
REMARK   86  A    between atoms: _204  and  _206
REMARK   87  A    between atoms: _206  and  _207
REMARK   88  A    between atoms: _209  and  _211
REMARK   89  A    between atoms: _211  and  _212
REMARK   90  A    between atoms: _211  and  _214
REMARK   91  A    between atoms: _214  and  _215
REMARK   92  A    between atoms: _215  and  _216
REMARK   93  A    between atoms: _216  and  _217
REMARK   94  A    between atoms: _217  and  _218
REMARK   95  A    between atoms: _222  and  _224
REMARK   96  A    between atoms: _224  and  _225
REMARK   97  A    between atoms: _224  and  _227
REMARK   98  A    between atoms: _227  and  _228
REMARK   99  A    between atoms: _231  and  _233
REMARK  100  A    between atoms: _233  and  _234
REMARK  101  A    between atoms: _233  and  _236
REMARK  102  A    between atoms: _236  and  _237
REMARK  103  A    between atoms: _240  and  _242
REMARK  104  A    between atoms: _242  and  _243
REMARK  105  A    between atoms: _242  and  _245
REMARK  106  A    between atoms: _245  and  _246
REMARK  107  A    between atoms: _249  and  _251
REMARK  108  A    between atoms: _251  and  _252
REMARK  109  A    between atoms: _251  and  _254
REMARK  110  A    between atoms: _254  and  _255
REMARK  111  A    between atoms: _257  and  _259
REMARK  112  A    between atoms: _259  and  _260
REMARK  113  A    between atoms: _259  and  _262
REMARK  114  A    between atoms: _262  and  _263
REMARK  115  A    between atoms: _266  and  _268
REMARK  116  A    between atoms: _268  and  _269
REMARK  117  A    between atoms: _268  and  _271
REMARK  118  A    between atoms: _271  and  _272
REMARK  119  A    between atoms: _275  and  _277
REMARK  120  A    between atoms: _277  and  _278
REMARK  121  A    between atoms: _277  and  _280
REMARK  122  A    between atoms: _280  and  _281
REMARK  123  A    between atoms: _281  and  _282
REMARK  124  A    between atoms: _282  and  _283
REMARK  125  A    between atoms: _292  and  _294
REMARK  126  A    between atoms: _294  and  _295
REMARK  127  A    between atoms: _294  and  _297
REMARK  128  A    between atoms: _300  and  _302
REMARK  129  A    between atoms: _302  and  _303
REMARK  130  A    between atoms: _305  and  _307
REMARK  131  A    between atoms: _307  and  _308
REMARK  132  A    between atoms: _307  and  _310
REMARK  133  A    between atoms: _310  and  _311
REMARK  134  A    between atoms: _314  and  _316
REMARK  135  A    between atoms: _316  and  _317
REMARK  136  A    between atoms: _316  and  _319
REMARK  137  A    between atoms: _319  and  _320
REMARK  138  A    between atoms: _320  and  _321
REMARK  139  A    between atoms: _321  and  _322
REMARK  140  A    between atoms: _322  and  _323
REMARK  141  A    between atoms: _327  and  _329
REMARK  142  A    between atoms: _329  and  _330
REMARK  143  A    between atoms: _329  and  _332
REMARK  144  A    between atoms: _332  and  _333
REMARK  145  A    between atoms: _335  and  _337
REMARK  146  A    between atoms: _337  and  _338
REMARK  147  A    between atoms: _340  and  _342
REMARK  148  A    between atoms: _342  and  _343
REMARK  149  A    between atoms: _342  and  _345
REMARK  150  A    between atoms: _345  and  _346
REMARK  151  A    between atoms: _351  and  _352
REMARK  152  A    between atoms: _354  and  _356
REMARK  153  A    between atoms: _356  and  _357
REMARK  154  A    between atoms: _360  and  _362
REMARK  155  A    between atoms: _362  and  _363
REMARK  156  A    between atoms: _362  and  _365
REMARK  157  A    between atoms: _365  and  _366
REMARK  158  A    between atoms: _368  and  _370
REMARK  159  A    between atoms: _370  and  _371
REMARK  160  A    between atoms: _373  and  _375
REMARK  161  A    between atoms: _375  and  _376
REMARK  162  A    between atoms: _378  and  _380
REMARK  163  A    between atoms: _380  and  _381
REMARK  164  A    between atoms: _384  and  _386
REMARK  165  A    between atoms: _386  and  _387
REMARK  166  A    between atoms: _389  and  _391
REMARK  167  A    between atoms: _391  and  _392
REMARK  168  A    between atoms: _391  and  _394
REMARK  169  A    between atoms: _394  and  _395
REMARK  170  A    between atoms: _401  and  _403
REMARK  171  A    between atoms: _403  and  _404
REMARK  172  A    between atoms: _403  and  _406
REMARK  173  A    between atoms: _406  and  _407
REMARK  174  A    between atoms: _410  and  _412
REMARK  175  A    between atoms: _412  and  _413
REMARK  176  A    between atoms: _416  and  _418
REMARK  177  A    between atoms: _418  and  _419
REMARK  178  A    between atoms: _422  and  _424
REMARK  179  A    between atoms: _424  and  _425
REMARK  180  A    between atoms: _424  and  _427
REMARK  181  A    between atoms: _427  and  _428
REMARK  182  A    between atoms: _430  and  _432
REMARK  183  A    between atoms: _432  and  _433
REMARK  184  A    between atoms: _432  and  _435
REMARK  185  A    between atoms: _438  and  _440
REMARK  186  A    between atoms: _440  and  _441
REMARK  187  A    between atoms: _440  and  _443
REMARK  188  A    between atoms: _443  and  _444
REMARK  189  A    between atoms: _450  and  _452
REMARK  190  A    between atoms: _452  and  _453
REMARK  191  A    between atoms: _452  and  _455
REMARK  192  A    between atoms: _455  and  _456
REMARK  193  A    between atoms: _461  and  _463
REMARK  194  A    between atoms: _463  and  _464
REMARK  195  A    between atoms: _463  and  _466
REMARK  196  A    between atoms: _466  and  _467
REMARK                            x       y       z     vdW  Elec       q    Type
REMARK                         _______ _______ _______ _____ _____    ______ ____
ROOT
ATOM      1  O   HOH     1      10.084  17.117  28.244  0.00  0.00    +0.000 OA
ENDROOT
TORSDOF 0
REMARK  Name = ../refined-set-2016/4ewn/4ewn_pocket.pdb
REMARK  196 active torsions:
REMARK  status: ('A' for Active; 'I' for Inactive)
REMARK    1  A    between atoms: _1  and  _3
REMARK    2  A    between atoms: _3  and  _4
REMARK    3  A    between atoms: _3  and  _6
REMARK    4  A    between atoms: _6  and  _7
REMARK    5  A    between atoms: _10  and  _12
REMARK    6  A    between atoms: _12  and  _13
REMARK    7  A    between atoms: _16  and  _18
REMARK    8  A    between atoms: _18  and  _19
REMARK    9  A    between atoms: _18  and  _21
REMARK   10  A    between atoms: _23  and  _25
REMARK   11  A    between atoms: _25  and  _26
REMARK   12  A    between atoms: _25  and  _28
REMARK   13  A    between atoms: _28  and  _29
REMARK   14  A    between atoms: _32  and  _34
REMARK   15  A    between atoms: _34  and  _35
REMARK   16  A    between atoms: _34  and  _37
REMARK   17  A    between atoms: _37  and  _38
REMARK   18  A    between atoms: _41  and  _43
REMARK   19  A    between atoms: _43  and  _44
REMARK   20  A    between atoms: _43  and  _46
REMARK   21  A    between atoms: _49  and  _51
REMARK   22  A    between atoms: _51  and  _52
REMARK   23  A    between atoms: _51  and  _54
REMARK   24  A    between atoms: _54  and  _55
REMARK   25  A    between atoms: _58  and  _60
REMARK   26  A    between atoms: _60  and  _61
REMARK   27  A    between atoms: _60  and  _63
REMARK   28  A    between atoms: _63  and  _64
REMARK   29  A    between atoms: _67  and  _69
REMARK   30  A    between atoms: _69  and  _70
REMARK   31  A    between atoms: _69  and  _72
REMARK   32  A    between atoms: _72  and  _73
REMARK   33  A    between atoms: _76  and  _78
REMARK   34  A    between atoms: _78  and  _79
REMARK   35  A    between atoms: _81  and  _83
REMARK   36  A    between atoms: _83  and  _84
REMARK   37  A    between atoms: _86  and  _88
REMARK   38  A    between atoms: _88  and  _89
REMARK   39  A    between atoms: _91  and  _93
REMARK   40  A    between atoms: _93  and  _94
REMARK   41  A    between atoms: _93  and  _96
REMARK   42  A    between atoms: _96  and  _97
REMARK   43  A    between atoms: _99  and  _101
REMARK   44  A    between atoms: _101  and  _102
REMARK   45  A    between atoms: _101  and  _104
REMARK   46  A    between atoms: _104  and  _105
REMARK   47  A    between atoms: _110  and  _112
REMARK   48  A    between atoms: _112  and  _113
REMARK   49  A    between atoms: _112  and  _115
REMARK   50  A    between atoms: _115  and  _116
REMARK   51  A    between atoms: _119  and  _121
REMARK   52  A    between atoms: _121  and  _122
REMARK   53  A    between atoms: _125  and  _127
REMARK   54  A    between atoms: _127  and  _128
REMARK   55  A    between atoms: _127  and  _130
REMARK   56  A    between atoms: _130  and  _131
REMARK   57  A    between atoms: _134  and  _136
REMARK   58  A    between atoms: _136  and  _137
REMARK   59  A    between atoms: _136  and  _139
REMARK   60  A    between atoms: _142  and  _144
REMARK   61  A    between atoms: _144  and  _145
REMARK   62  A    between atoms: _148  and  _150
REMARK   63  A    between atoms: _150  and  _151
REMARK   64  A    between atoms: _150  and  _153
REMARK   65  A    between atoms: _153  and  _154
REMARK   66  A    between atoms: _154  and  _155
REMARK   67  A    between atoms: _155  and  _156
REMARK   68  A    between atoms: _156  and  _157
REMARK   69  A    between atoms: _161  and  _163
REMARK   70  A    between atoms: _163  and  _164
REMARK   71  A    between atoms: _163  and  _166
REMARK   72  A    between atoms: _166  and  _167
REMARK   73  A    between atoms: _173  and  _175
REMARK   74  A    between atoms: _175  and  _176
REMARK   75  A    between atoms: _175  and  _178
REMARK   76  A    between atoms: _178  and  _179
REMARK   77  A    between atoms: _182  and  _184
REMARK   78  A    between atoms: _184  and  _185
REMARK   79  A    between atoms: _184  and  _187
REMARK   80  A    between atoms: _187  and  _188
REMARK   81  A    between atoms: _193  and  _194
REMARK   82  A    between atoms: _196  and  _198
REMARK   83  A    between atoms: _198  and  _199
REMARK   84  A    between atoms: _198  and  _201
REMARK   85  A    between atoms: _201  and  _202
REMARK   86  A    between atoms: _204  and  _206
REMARK   87  A    between atoms: _206  and  _207
REMARK   88  A    between atoms: _209  and  _211
REMARK   89  A    between atoms: _211  and  _212
REMARK   90  A    between atoms: _211  and  _214
REMARK   91  A    between atoms: _214  and  _215
REMARK   92  A    between atoms: _215  and  _216
REMARK   93  A    between atoms: _216  and  _217
REMARK   94  A    between atoms: _217  and  _218
REMARK   95  A    between atoms: _222  and  _224
REMARK   96  A    between atoms: _224  and  _225
REMARK   97  A    between atoms: _224  and  _227
REMARK   98  A    between atoms: _227  and  _228
REMARK   99  A    between atoms: _231  and  _233
REMARK  100  A    between atoms: _233  and  _234
REMARK  101  A    between atoms: _233  and  _236
REMARK  102  A    between atoms: _236  and  _237
REMARK  103  A    between atoms: _240  and  _242
REMARK  104  A    between atoms: _242  and  _243
REMARK  105  A    between atoms: _242  and  _245
REMARK  106  A    between atoms: _245  and  _246
REMARK  107  A    between atoms: _249  and  _251
REMARK  108  A    between atoms: _251  and  _252
REMARK  109  A    between atoms: _251  and  _254
REMARK  110  A    between atoms: _254  and  _255
REMARK  111  A    between atoms: _257  and  _259
REMARK  112  A    between atoms: _259  and  _260
REMARK  113  A    between atoms: _259  and  _262
REMARK  114  A    between atoms: _262  and  _263
REMARK  115  A    between atoms: _266  and  _268
REMARK  116  A    between atoms: _268  and  _269
REMARK  117  A    between atoms: _268  and  _271
REMARK  118  A    between atoms: _271  and  _272
REMARK  119  A    between atoms: _275  and  _277
REMARK  120  A    between atoms: _277  and  _278
REMARK  121  A    between atoms: _277  and  _280
REMARK  122  A    between atoms: _280  and  _281
REMARK  123  A    between atoms: _281  and  _282
REMARK  124  A    between atoms: _282  and  _283
REMARK  125  A    between atoms: _292  and  _294
REMARK  126  A    between atoms: _294  and  _295
REMARK  127  A    between atoms: _294  and  _297
REMARK  128  A    between atoms: _300  and  _302
REMARK  129  A    between atoms: _302  and  _303
REMARK  130  A    between atoms: _305  and  _307
REMARK  131  A    between atoms: _307  and  _308
REMARK  132  A    between atoms: _307  and  _310
REMARK  133  A    between atoms: _310  and  _311
REMARK  134  A    between atoms: _314  and  _316
REMARK  135  A    between atoms: _316  and  _317
REMARK  136  A    between atoms: _316  and  _319
REMARK  137  A    between atoms: _319  and  _320
REMARK  138  A    between atoms: _320  and  _321
REMARK  139  A    between atoms: _321  and  _322
REMARK  140  A    between atoms: _322  and  _323
REMARK  141  A    between atoms: _327  and  _329
REMARK  142  A    between atoms: _329  and  _330
REMARK  143  A    between atoms: _329  and  _332
REMARK  144  A    between atoms: _332  and  _333
REMARK  145  A    between atoms: _335  and  _337
REMARK  146  A    between atoms: _337  and  _338
REMARK  147  A    between atoms: _340  and  _342
REMARK  148  A    between atoms: _342  and  _343
REMARK  149  A    between atoms: _342  and  _345
REMARK  150  A    between atoms: _345  and  _346
REMARK  151  A    between atoms: _351  and  _352
REMARK  152  A    between atoms: _354  and  _356
REMARK  153  A    between atoms: _356  and  _357
REMARK  154  A    between atoms: _360  and  _362
REMARK  155  A    between atoms: _362  and  _363
REMARK  156  A    between atoms: _362  and  _365
REMARK  157  A    between atoms: _365  and  _366
REMARK  158  A    between atoms: _368  and  _370
REMARK  159  A    between atoms: _370  and  _371
REMARK  160  A    between atoms: _373  and  _375
REMARK  161  A    between atoms: _375  and  _376
REMARK  162  A    between atoms: _378  and  _380
REMARK  163  A    between atoms: _380  and  _381
REMARK  164  A    between atoms: _384  and  _386
REMARK  165  A    between atoms: _386  and  _387
REMARK  166  A    between atoms: _389  and  _391
REMARK  167  A    between atoms: _391  and  _392
REMARK  168  A    between atoms: _391  and  _394
REMARK  169  A    between atoms: _394  and  _395
REMARK  170  A    between atoms: _401  and  _403
REMARK  171  A    between atoms: _403  and  _404
REMARK  172  A    between atoms: _403  and  _406
REMARK  173  A    between atoms: _406  and  _407
REMARK  174  A    between atoms: _410  and  _412
REMARK  175  A    between atoms: _412  and  _413
REMARK  176  A    between atoms: _416  and  _418
REMARK  177  A    between atoms: _418  and  _419
REMARK  178  A    between atoms: _422  and  _424
REMARK  179  A    between atoms: _424  and  _425
REMARK  180  A    between atoms: _424  and  _427
REMARK  181  A    between atoms: _427  and  _428
REMARK  182  A    between atoms: _430  and  _432
REMARK  183  A    between atoms: _432  and  _433
REMARK  184  A    between atoms: _432  and  _435
REMARK  185  A    between atoms: _438  and  _440
REMARK  186  A    between atoms: _440  and  _441
REMARK  187  A    between atoms: _440  and  _443
REMARK  188  A    between atoms: _443  and  _444
REMARK  189  A    between atoms: _450  and  _452
REMARK  190  A    between atoms: _452  and  _453
REMARK  191  A    between atoms: _452  and  _455
REMARK  192  A    between atoms: _455  and  _456
REMARK  193  A    between atoms: _461  and  _463
REMARK  194  A    between atoms: _463  and  _464
REMARK  195  A    between atoms: _463  and  _466
REMARK  196  A    between atoms: _466  and  _467
REMARK                            x       y       z     vdW  Elec       q    Type
REMARK                         _______ _______ _______ _____ _____    ______ ____
ROOT
ATOM      1  O   HOH     1      20.463  18.405  28.324  0.00  0.00    +0.000 OA
ENDROOT
TORSDOF 0
REMARK  Name = ../refined-set-2016/4ewn/4ewn_pocket.pdb
REMARK  196 active torsions:
REMARK  status: ('A' for Active; 'I' for Inactive)
REMARK    1  A    between atoms: _1  and  _3
REMARK    2  A    between atoms: _3  and  _4
REMARK    3  A    between atoms: _3  and  _6
REMARK    4  A    between atoms: _6  and  _7
REMARK    5  A    between atoms: _10  and  _12
REMARK    6  A    between atoms: _12  and  _13
REMARK    7  A    between atoms: _16  and  _18
REMARK    8  A    between atoms: _18  and  _19
REMARK    9  A    between atoms: _18  and  _21
REMARK   10  A    between atoms: _23  and  _25
REMARK   11  A    between atoms: _25  and  _26
REMARK   12  A    between atoms: _25  and  _28
REMARK   13  A    between atoms: _28  and  _29
REMARK   14  A    between atoms: _32  and  _34
REMARK   15  A    between atoms: _34  and  _35
REMARK   16  A    between atoms: _34  and  _37
REMARK   17  A    between atoms: _37  and  _38
REMARK   18  A    between atoms: _41  and  _43
REMARK   19  A    between atoms: _43  and  _44
REMARK   20  A    between atoms: _43  and  _46
REMARK   21  A    between atoms: _49  and  _51
REMARK   22  A    between atoms: _51  and  _52
REMARK   23  A    between atoms: _51  and  _54
REMARK   24  A    between atoms: _54  and  _55
REMARK   25  A    between atoms: _58  and  _60
REMARK   26  A    between atoms: _60  and  _61
REMARK   27  A    between atoms: _60  and  _63
REMARK   28  A    between atoms: _63  and  _64
REMARK   29  A    between atoms: _67  and  _69
REMARK   30  A    between atoms: _69  and  _70
REMARK   31  A    between atoms: _69  and  _72
REMARK   32  A    between atoms: _72  and  _73
REMARK   33  A    between atoms: _76  and  _78
REMARK   34  A    between atoms: _78  and  _79
REMARK   35  A    between atoms: _81  and  _83
REMARK   36  A    between atoms: _83  and  _84
REMARK   37  A    between atoms: _86  and  _88
REMARK   38  A    between atoms: _88  and  _89
REMARK   39  A    between atoms: _91  and  _93
REMARK   40  A    between atoms: _93  and  _94
REMARK   41  A    between atoms: _93  and  _96
REMARK   42  A    between atoms: _96  and  _97
REMARK   43  A    between atoms: _99  and  _101
REMARK   44  A    between atoms: _101  and  _102
REMARK   45  A    between atoms: _101  and  _104
REMARK   46  A    between atoms: _104  and  _105
REMARK   47  A    between atoms: _110  and  _112
REMARK   48  A    between atoms: _112  and  _113
REMARK   49  A    between atoms: _112  and  _115
REMARK   50  A    between atoms: _115  and  _116
REMARK   51  A    between atoms: _119  and  _121
REMARK   52  A    between atoms: _121  and  _122
REMARK   53  A    between atoms: _125  and  _127
REMARK   54  A    between atoms: _127  and  _128
REMARK   55  A    between atoms: _127  and  _130
REMARK   56  A    between atoms: _130  and  _131
REMARK   57  A    between atoms: _134  and  _136
REMARK   58  A    between atoms: _136  and  _137
REMARK   59  A    between atoms: _136  and  _139
REMARK   60  A    between atoms: _142  and  _144
REMARK   61  A    between atoms: _144  and  _145
REMARK   62  A    between atoms: _148  and  _150
REMARK   63  A    between atoms: _150  and  _151
REMARK   64  A    between atoms: _150  and  _153
REMARK   65  A    between atoms: _153  and  _154
REMARK   66  A    between atoms: _154  and  _155
REMARK   67  A    between atoms: _155  and  _156
REMARK   68  A    between atoms: _156  and  _157
REMARK   69  A    between atoms: _161  and  _163
REMARK   70  A    between atoms: _163  and  _164
REMARK   71  A    between atoms: _163  and  _166
REMARK   72  A    between atoms: _166  and  _167
REMARK   73  A    between atoms: _173  and  _175
REMARK   74  A    between atoms: _175  and  _176
REMARK   75  A    between atoms: _175  and  _178
REMARK   76  A    between atoms: _178  and  _179
REMARK   77  A    between atoms: _182  and  _184
REMARK   78  A    between atoms: _184  and  _185
REMARK   79  A    between atoms: _184  and  _187
REMARK   80  A    between atoms: _187  and  _188
REMARK   81  A    between atoms: _193  and  _194
REMARK   82  A    between atoms: _196  and  _198
REMARK   83  A    between atoms: _198  and  _199
REMARK   84  A    between atoms: _198  and  _201
REMARK   85  A    between atoms: _201  and  _202
REMARK   86  A    between atoms: _204  and  _206
REMARK   87  A    between atoms: _206  and  _207
REMARK   88  A    between atoms: _209  and  _211
REMARK   89  A    between atoms: _211  and  _212
REMARK   90  A    between atoms: _211  and  _214
REMARK   91  A    between atoms: _214  and  _215
REMARK   92  A    between atoms: _215  and  _216
REMARK   93  A    between atoms: _216  and  _217
REMARK   94  A    between atoms: _217  and  _218
REMARK   95  A    between atoms: _222  and  _224
REMARK   96  A    between atoms: _224  and  _225
REMARK   97  A    between atoms: _224  and  _227
REMARK   98  A    between atoms: _227  and  _228
REMARK   99  A    between atoms: _231  and  _233
REMARK  100  A    between atoms: _233  and  _234
REMARK  101  A    between atoms: _233  and  _236
REMARK  102  A    between atoms: _236  and  _237
REMARK  103  A    between atoms: _240  and  _242
REMARK  104  A    between atoms: _242  and  _243
REMARK  105  A    between atoms: _242  and  _245
REMARK  106  A    between atoms: _245  and  _246
REMARK  107  A    between atoms: _249  and  _251
REMARK  108  A    between atoms: _251  and  _252
REMARK  109  A    between atoms: _251  and  _254
REMARK  110  A    between atoms: _254  and  _255
REMARK  111  A    between atoms: _257  and  _259
REMARK  112  A    between atoms: _259  and  _260
REMARK  113  A    between atoms: _259  and  _262
REMARK  114  A    between atoms: _262  and  _263
REMARK  115  A    between atoms: _266  and  _268
REMARK  116  A    between atoms: _268  and  _269
REMARK  117  A    between atoms: _268  and  _271
REMARK  118  A    between atoms: _271  and  _272
REMARK  119  A    between atoms: _275  and  _277
REMARK  120  A    between atoms: _277  and  _278
REMARK  121  A    between atoms: _277  and  _280
REMARK  122  A    between atoms: _280  and  _281
REMARK  123  A    between atoms: _281  and  _282
REMARK  124  A    between atoms: _282  and  _283
REMARK  125  A    between atoms: _292  and  _294
REMARK  126  A    between atoms: _294  and  _295
REMARK  127  A    between atoms: _294  and  _297
REMARK  128  A    between atoms: _300  and  _302
REMARK  129  A    between atoms: _302  and  _303
REMARK  130  A    between atoms: _305  and  _307
REMARK  131  A    between atoms: _307  and  _308
REMARK  132  A    between atoms: _307  and  _310
REMARK  133  A    between atoms: _310  and  _311
REMARK  134  A    between atoms: _314  and  _316
REMARK  135  A    between atoms: _316  and  _317
REMARK  136  A    between atoms: _316  and  _319
REMARK  137  A    between atoms: _319  and  _320
REMARK  138  A    between atoms: _320  and  _321
REMARK  139  A    between atoms: _321  and  _322
REMARK  140  A    between atoms: _322  and  _323
REMARK  141  A    between atoms: _327  and  _329
REMARK  142  A    between atoms: _329  and  _330
REMARK  143  A    between atoms: _329  and  _332
REMARK  144  A    between atoms: _332  and  _333
REMARK  145  A    between atoms: _335  and  _337
REMARK  146  A    between atoms: _337  and  _338
REMARK  147  A    between atoms: _340  and  _342
REMARK  148  A    between atoms: _342  and  _343
REMARK  149  A    between atoms: _342  and  _345
REMARK  150  A    between atoms: _345  and  _346
REMARK  151  A    between atoms: _351  and  _352
REMARK  152  A    between atoms: _354  and  _356
REMARK  153  A    between atoms: _356  and  _357
REMARK  154  A    between atoms: _360  and  _362
REMARK  155  A    between atoms: _362  and  _363
REMARK  156  A    between atoms: _362  and  _365
REMARK  157  A    between atoms: _365  and  _366
REMARK  158  A    between atoms: _368  and  _370
REMARK  159  A    between atoms: _370  and  _371
REMARK  160  A    between atoms: _373  and  _375
REMARK  161  A    between atoms: _375  and  _376
REMARK  162  A    between atoms: _378  and  _380
REMARK  163  A    between atoms: _380  and  _381
REMARK  164  A    between atoms: _384  and  _386
REMARK  165  A    between atoms: _386  and  _387
REMARK  166  A    between atoms: _389  and  _391
REMARK  167  A    between atoms: _391  and  _392
REMARK  168  A    between atoms: _391  and  _394
REMARK  169  A    between atoms: _394  and  _395
REMARK  170  A    between atoms: _401  and  _403
REMARK  171  A    between atoms: _403  and  _404
REMARK  172  A    between atoms: _403  and  _406
REMARK  173  A    between atoms: _406  and  _407
REMARK  174  A    between atoms: _410  and  _412
REMARK  175  A    between atoms: _412  and  _413
REMARK  176  A    between atoms: _416  and  _418
REMARK  177  A    between atoms: _418  and  _419
REMARK  178  A    between atoms: _422  and  _424
REMARK  179  A    between atoms: _424  and  _425
REMARK  180  A    between atoms: _424  and  _427
REMARK  181  A    between atoms: _427  and  _428
REMARK  182  A    between atoms: _430  and  _432
REMARK  183  A    between atoms: _432  and  _433
REMARK  184  A    between atoms: _432  and  _435
REMARK  185  A    between atoms: _438  and  _440
REMARK  186  A    between atoms: _440  and  _441
REMARK  187  A    between atoms: _440  and  _443
REMARK  188  A    between atoms: _443  and  _444
REMARK  189  A    between atoms: _450  and  _452
REMARK  190  A    between atoms: _452  and  _453
REMARK  191  A    between atoms: _452  and  _455
REMARK  192  A    between atoms: _455  and  _456
REMARK  193  A    between atoms: _461  and  _463
REMARK  194  A    between atoms: _463  and  _464
REMARK  195  A    between atoms: _463  and  _466
REMARK  196  A    between atoms: _466  and  _467
REMARK                            x       y       z     vdW  Elec       q    Type
REMARK                         _______ _______ _______ _____ _____    ______ ____
ROOT
ATOM      1  O   HOH     1      24.097  20.804  26.177  0.00  0.00    +0.000 OA
ENDROOT
TORSDOF 0
REMARK  Name = ../refined-set-2016/4ewn/4ewn_pocket.pdb
REMARK  196 active torsions:
REMARK  status: ('A' for Active; 'I' for Inactive)
REMARK    1  A    between atoms: _1  and  _3
REMARK    2  A    between atoms: _3  and  _4
REMARK    3  A    between atoms: _3  and  _6
REMARK    4  A    between atoms: _6  and  _7
REMARK    5  A    between atoms: _10  and  _12
REMARK    6  A    between atoms: _12  and  _13
REMARK    7  A    between atoms: _16  and  _18
REMARK    8  A    between atoms: _18  and  _19
REMARK    9  A    between atoms: _18  and  _21
REMARK   10  A    between atoms: _23  and  _25
REMARK   11  A    between atoms: _25  and  _26
REMARK   12  A    between atoms: _25  and  _28
REMARK   13  A    between atoms: _28  and  _29
REMARK   14  A    between atoms: _32  and  _34
REMARK   15  A    between atoms: _34  and  _35
REMARK   16  A    between atoms: _34  and  _37
REMARK   17  A    between atoms: _37  and  _38
REMARK   18  A    between atoms: _41  and  _43
REMARK   19  A    between atoms: _43  and  _44
REMARK   20  A    between atoms: _43  and  _46
REMARK   21  A    between atoms: _49  and  _51
REMARK   22  A    between atoms: _51  and  _52
REMARK   23  A    between atoms: _51  and  _54
REMARK   24  A    between atoms: _54  and  _55
REMARK   25  A    between atoms: _58  and  _60
REMARK   26  A    between atoms: _60  and  _61
REMARK   27  A    between atoms: _60  and  _63
REMARK   28  A    between atoms: _63  and  _64
REMARK   29  A    between atoms: _67  and  _69
REMARK   30  A    between atoms: _69  and  _70
REMARK   31  A    between atoms: _69  and  _72
REMARK   32  A    between atoms: _72  and  _73
REMARK   33  A    between atoms: _76  and  _78
REMARK   34  A    between atoms: _78  and  _79
REMARK   35  A    between atoms: _81  and  _83
REMARK   36  A    between atoms: _83  and  _84
REMARK   37  A    between atoms: _86  and  _88
REMARK   38  A    between atoms: _88  and  _89
REMARK   39  A    between atoms: _91  and  _93
REMARK   40  A    between atoms: _93  and  _94
REMARK   41  A    between atoms: _93  and  _96
REMARK   42  A    between atoms: _96  and  _97
REMARK   43  A    between atoms: _99  and  _101
REMARK   44  A    between atoms: _101  and  _102
REMARK   45  A    between atoms: _101  and  _104
REMARK   46  A    between atoms: _104  and  _105
REMARK   47  A    between atoms: _110  and  _112
REMARK   48  A    between atoms: _112  and  _113
REMARK   49  A    between atoms: _112  and  _115
REMARK   50  A    between atoms: _115  and  _116
REMARK   51  A    between atoms: _119  and  _121
REMARK   52  A    between atoms: _121  and  _122
REMARK   53  A    between atoms: _125  and  _127
REMARK   54  A    between atoms: _127  and  _128
REMARK   55  A    between atoms: _127  and  _130
REMARK   56  A    between atoms: _130  and  _131
REMARK   57  A    between atoms: _134  and  _136
REMARK   58  A    between atoms: _136  and  _137
REMARK   59  A    between atoms: _136  and  _139
REMARK   60  A    between atoms: _142  and  _144
REMARK   61  A    between atoms: _144  and  _145
REMARK   62  A    between atoms: _148  and  _150
REMARK   63  A    between atoms: _150  and  _151
REMARK   64  A    between atoms: _150  and  _153
REMARK   65  A    between atoms: _153  and  _154
REMARK   66  A    between atoms: _154  and  _155
REMARK   67  A    between atoms: _155  and  _156
REMARK   68  A    between atoms: _156  and  _157
REMARK   69  A    between atoms: _161  and  _163
REMARK   70  A    between atoms: _163  and  _164
REMARK   71  A    between atoms: _163  and  _166
REMARK   72  A    between atoms: _166  and  _167
REMARK   73  A    between atoms: _173  and  _175
REMARK   74  A    between atoms: _175  and  _176
REMARK   75  A    between atoms: _175  and  _178
REMARK   76  A    between atoms: _178  and  _179
REMARK   77  A    between atoms: _182  and  _184
REMARK   78  A    between atoms: _184  and  _185
REMARK   79  A    between atoms: _184  and  _187
REMARK   80  A    between atoms: _187  and  _188
REMARK   81  A    between atoms: _193  and  _194
REMARK   82  A    between atoms: _196  and  _198
REMARK   83  A    between atoms: _198  and  _199
REMARK   84  A    between atoms: _198  and  _201
REMARK   85  A    between atoms: _201  and  _202
REMARK   86  A    between atoms: _204  and  _206
REMARK   87  A    between atoms: _206  and  _207
REMARK   88  A    between atoms: _209  and  _211
REMARK   89  A    between atoms: _211  and  _212
REMARK   90  A    between atoms: _211  and  _214
REMARK   91  A    between atoms: _214  and  _215
REMARK   92  A    between atoms: _215  and  _216
REMARK   93  A    between atoms: _216  and  _217
REMARK   94  A    between atoms: _217  and  _218
REMARK   95  A    between atoms: _222  and  _224
REMARK   96  A    between atoms: _224  and  _225
REMARK   97  A    between atoms: _224  and  _227
REMARK   98  A    between atoms: _227  and  _228
REMARK   99  A    between atoms: _231  and  _233
REMARK  100  A    between atoms: _233  and  _234
REMARK  101  A    between atoms: _233  and  _236
REMARK  102  A    between atoms: _236  and  _237
REMARK  103  A    between atoms: _240  and  _242
REMARK  104  A    between atoms: _242  and  _243
REMARK  105  A    between atoms: _242  and  _245
REMARK  106  A    between atoms: _245  and  _246
REMARK  107  A    between atoms: _249  and  _251
REMARK  108  A    between atoms: _251  and  _252
REMARK  109  A    between atoms: _251  and  _254
REMARK  110  A    between atoms: _254  and  _255
REMARK  111  A    between atoms: _257  and  _259
REMARK  112  A    between atoms: _259  and  _260
REMARK  113  A    between atoms: _259  and  _262
REMARK  114  A    between atoms: _262  and  _263
REMARK  115  A    between atoms: _266  and  _268
REMARK  116  A    between atoms: _268  and  _269
REMARK  117  A    between atoms: _268  and  _271
REMARK  118  A    between atoms: _271  and  _272
REMARK  119  A    between atoms: _275  and  _277
REMARK  120  A    between atoms: _277  and  _278
REMARK  121  A    between atoms: _277  and  _280
REMARK  122  A    between atoms: _280  and  _281
REMARK  123  A    between atoms: _281  and  _282
REMARK  124  A    between atoms: _282  and  _283
REMARK  125  A    between atoms: _292  and  _294
REMARK  126  A    between atoms: _294  and  _295
REMARK  127  A    between atoms: _294  and  _297
REMARK  128  A    between atoms: _300  and  _302
REMARK  129  A    between atoms: _302  and  _303
REMARK  130  A    between atoms: _305  and  _307
REMARK  131  A    between atoms: _307  and  _308
REMARK  132  A    between atoms: _307  and  _310
REMARK  133  A    between atoms: _310  and  _311
REMARK  134  A    between atoms: _314  and  _316
REMARK  135  A    between atoms: _316  and  _317
REMARK  136  A    between atoms: _316  and  _319
REMARK  137  A    between atoms: _319  and  _320
REMARK  138  A    between atoms: _320  and  _321
REMARK  139  A    between atoms: _321  and  _322
REMARK  140  A    between atoms: _322  and  _323
REMARK  141  A    between atoms: _327  and  _329
REMARK  142  A    between atoms: _329  and  _330
REMARK  143  A    between atoms: _329  and  _332
REMARK  144  A    between atoms: _332  and  _333
REMARK  145  A    between atoms: _335  and  _337
REMARK  146  A    between atoms: _337  and  _338
REMARK  147  A    between atoms: _340  and  _342
REMARK  148  A    between atoms: _342  and  _343
REMARK  149  A    between atoms: _342  and  _345
REMARK  150  A    between atoms: _345  and  _346
REMARK  151  A    between atoms: _351  and  _352
REMARK  152  A    between atoms: _354  and  _356
REMARK  153  A    between atoms: _356  and  _357
REMARK  154  A    between atoms: _360  and  _362
REMARK  155  A    between atoms: _362  and  _363
REMARK  156  A    between atoms: _362  and  _365
REMARK  157  A    between atoms: _365  and  _366
REMARK  158  A    between atoms: _368  and  _370
REMARK  159  A    between atoms: _370  and  _371
REMARK  160  A    between atoms: _373  and  _375
REMARK  161  A    between atoms: _375  and  _376
REMARK  162  A    between atoms: _378  and  _380
REMARK  163  A    between atoms: _380  and  _381
REMARK  164  A    between atoms: _384  and  _386
REMARK  165  A    between atoms: _386  and  _387
REMARK  166  A    between atoms: _389  and  _391
REMARK  167  A    between atoms: _391  and  _392
REMARK  168  A    between atoms: _391  and  _394
REMARK  169  A    between atoms: _394  and  _395
REMARK  170  A    between atoms: _401  and  _403
REMARK  171  A    between atoms: _403  and  _404
REMARK  172  A    between atoms: _403  and  _406
REMARK  173  A    between atoms: _406  and  _407
REMARK  174  A    between atoms: _410  and  _412
REMARK  175  A    between atoms: _412  and  _413
REMARK  176  A    between atoms: _416  and  _418
REMARK  177  A    between atoms: _418  and  _419
REMARK  178  A    between atoms: _422  and  _424
REMARK  179  A    between atoms: _424  and  _425
REMARK  180  A    between atoms: _424  and  _427
REMARK  181  A    between atoms: _427  and  _428
REMARK  182  A    between atoms: _430  and  _432
REMARK  183  A    between atoms: _432  and  _433
REMARK  184  A    between atoms: _432  and  _435
REMARK  185  A    between atoms: _438  and  _440
REMARK  186  A    between atoms: _440  and  _441
REMARK  187  A    between atoms: _440  and  _443
REMARK  188  A    between atoms: _443  and  _444
REMARK  189  A    between atoms: _450  and  _452
REMARK  190  A    between atoms: _452  and  _453
REMARK  191  A    between atoms: _452  and  _455
REMARK  192  A    between atoms: _455  and  _456
REMARK  193  A    between atoms: _461  and  _463
REMARK  194  A    between atoms: _463  and  _464
REMARK  195  A    between atoms: _463  and  _466
REMARK  196  A    between atoms: _466  and  _467
REMARK                            x       y       z     vdW  Elec       q    Type
REMARK                         _______ _______ _______ _____ _____    ______ ____
ROOT
ATOM      1  O   HOH     1      11.378  27.936  13.518  0.00  0.00    +0.000 OA
ENDROOT
TORSDOF 0
REMARK  Name = ../refined-set-2016/4ewn/4ewn_pocket.pdb
REMARK  196 active torsions:
REMARK  status: ('A' for Active; 'I' for Inactive)
REMARK    1  A    between atoms: _1  and  _3
REMARK    2  A    between atoms: _3  and  _4
REMARK    3  A    between atoms: _3  and  _6
REMARK    4  A    between atoms: _6  and  _7
REMARK    5  A    between atoms: _10  and  _12
REMARK    6  A    between atoms: _12  and  _13
REMARK    7  A    between atoms: _16  and  _18
REMARK    8  A    between atoms: _18  and  _19
REMARK    9  A    between atoms: _18  and  _21
REMARK   10  A    between atoms: _23  and  _25
REMARK   11  A    between atoms: _25  and  _26
REMARK   12  A    between atoms: _25  and  _28
REMARK   13  A    between atoms: _28  and  _29
REMARK   14  A    between atoms: _32  and  _34
REMARK   15  A    between atoms: _34  and  _35
REMARK   16  A    between atoms: _34  and  _37
REMARK   17  A    between atoms: _37  and  _38
REMARK   18  A    between atoms: _41  and  _43
REMARK   19  A    between atoms: _43  and  _44
REMARK   20  A    between atoms: _43  and  _46
REMARK   21  A    between atoms: _49  and  _51
REMARK   22  A    between atoms: _51  and  _52
REMARK   23  A    between atoms: _51  and  _54
REMARK   24  A    between atoms: _54  and  _55
REMARK   25  A    between atoms: _58  and  _60
REMARK   26  A    between atoms: _60  and  _61
REMARK   27  A    between atoms: _60  and  _63
REMARK   28  A    between atoms: _63  and  _64
REMARK   29  A    between atoms: _67  and  _69
REMARK   30  A    between atoms: _69  and  _70
REMARK   31  A    between atoms: _69  and  _72
REMARK   32  A    between atoms: _72  and  _73
REMARK   33  A    between atoms: _76  and  _78
REMARK   34  A    between atoms: _78  and  _79
REMARK   35  A    between atoms: _81  and  _83
REMARK   36  A    between atoms: _83  and  _84
REMARK   37  A    between atoms: _86  and  _88
REMARK   38  A    between atoms: _88  and  _89
REMARK   39  A    between atoms: _91  and  _93
REMARK   40  A    between atoms: _93  and  _94
REMARK   41  A    between atoms: _93  and  _96
REMARK   42  A    between atoms: _96  and  _97
REMARK   43  A    between atoms: _99  and  _101
REMARK   44  A    between atoms: _101  and  _102
REMARK   45  A    between atoms: _101  and  _104
REMARK   46  A    between atoms: _104  and  _105
REMARK   47  A    between atoms: _110  and  _112
REMARK   48  A    between atoms: _112  and  _113
REMARK   49  A    between atoms: _112  and  _115
REMARK   50  A    between atoms: _115  and  _116
REMARK   51  A    between atoms: _119  and  _121
REMARK   52  A    between atoms: _121  and  _122
REMARK   53  A    between atoms: _125  and  _127
REMARK   54  A    between atoms: _127  and  _128
REMARK   55  A    between atoms: _127  and  _130
REMARK   56  A    between atoms: _130  and  _131
REMARK   57  A    between atoms: _134  and  _136
REMARK   58  A    between atoms: _136  and  _137
REMARK   59  A    between atoms: _136  and  _139
REMARK   60  A    between atoms: _142  and  _144
REMARK   61  A    between atoms: _144  and  _145
REMARK   62  A    between atoms: _148  and  _150
REMARK   63  A    between atoms: _150  and  _151
REMARK   64  A    between atoms: _150  and  _153
REMARK   65  A    between atoms: _153  and  _154
REMARK   66  A    between atoms: _154  and  _155
REMARK   67  A    between atoms: _155  and  _156
REMARK   68  A    between atoms: _156  and  _157
REMARK   69  A    between atoms: _161  and  _163
REMARK   70  A    between atoms: _163  and  _164
REMARK   71  A    between atoms: _163  and  _166
REMARK   72  A    between atoms: _166  and  _167
REMARK   73  A    between atoms: _173  and  _175
REMARK   74  A    between atoms: _175  and  _176
REMARK   75  A    between atoms: _175  and  _178
REMARK   76  A    between atoms: _178  and  _179
REMARK   77  A    between atoms: _182  and  _184
REMARK   78  A    between atoms: _184  and  _185
REMARK   79  A    between atoms: _184  and  _187
REMARK   80  A    between atoms: _187  and  _188
REMARK   81  A    between atoms: _193  and  _194
REMARK   82  A    between atoms: _196  and  _198
REMARK   83  A    between atoms: _198  and  _199
REMARK   84  A    between atoms: _198  and  _201
REMARK   85  A    between atoms: _201  and  _202
REMARK   86  A    between atoms: _204  and  _206
REMARK   87  A    between atoms: _206  and  _207
REMARK   88  A    between atoms: _209  and  _211
REMARK   89  A    between atoms: _211  and  _212
REMARK   90  A    between atoms: _211  and  _214
REMARK   91  A    between atoms: _214  and  _215
REMARK   92  A    between atoms: _215  and  _216
REMARK   93  A    between atoms: _216  and  _217
REMARK   94  A    between atoms: _217  and  _218
REMARK   95  A    between atoms: _222  and  _224
REMARK   96  A    between atoms: _224  and  _225
REMARK   97  A    between atoms: _224  and  _227
REMARK   98  A    between atoms: _227  and  _228
REMARK   99  A    between atoms: _231  and  _233
REMARK  100  A    between atoms: _233  and  _234
REMARK  101  A    between atoms: _233  and  _236
REMARK  102  A    between atoms: _236  and  _237
REMARK  103  A    between atoms: _240  and  _242
REMARK  104  A    between atoms: _242  and  _243
REMARK  105  A    between atoms: _242  and  _245
REMARK  106  A    between atoms: _245  and  _246
REMARK  107  A    between atoms: _249  and  _251
REMARK  108  A    between atoms: _251  and  _252
REMARK  109  A    between atoms: _251  and  _254
REMARK  110  A    between atoms: _254  and  _255
REMARK  111  A    between atoms: _257  and  _259
REMARK  112  A    between atoms: _259  and  _260
REMARK  113  A    between atoms: _259  and  _262
REMARK  114  A    between atoms: _262  and  _263
REMARK  115  A    between atoms: _266  and  _268
REMARK  116  A    between atoms: _268  and  _269
REMARK  117  A    between atoms: _268  and  _271
REMARK  118  A    between atoms: _271  and  _272
REMARK  119  A    between atoms: _275  and  _277
REMARK  120  A    between atoms: _277  and  _278
REMARK  121  A    between atoms: _277  and  _280
REMARK  122  A    between atoms: _280  and  _281
REMARK  123  A    between atoms: _281  and  _282
REMARK  124  A    between atoms: _282  and  _283
REMARK  125  A    between atoms: _292  and  _294
REMARK  126  A    between atoms: _294  and  _295
REMARK  127  A    between atoms: _294  and  _297
REMARK  128  A    between atoms: _300  and  _302
REMARK  129  A    between atoms: _302  and  _303
REMARK  130  A    between atoms: _305  and  _307
REMARK  131  A    between atoms: _307  and  _308
REMARK  132  A    between atoms: _307  and  _310
REMARK  133  A    between atoms: _310  and  _311
REMARK  134  A    between atoms: _314  and  _316
REMARK  135  A    between atoms: _316  and  _317
REMARK  136  A    between atoms: _316  and  _319
REMARK  137  A    between atoms: _319  and  _320
REMARK  138  A    between atoms: _320  and  _321
REMARK  139  A    between atoms: _321  and  _322
REMARK  140  A    between atoms: _322  and  _323
REMARK  141  A    between atoms: _327  and  _329
REMARK  142  A    between atoms: _329  and  _330
REMARK  143  A    between atoms: _329  and  _332
REMARK  144  A    between atoms: _332  and  _333
REMARK  145  A    between atoms: _335  and  _337
REMARK  146  A    between atoms: _337  and  _338
REMARK  147  A    between atoms: _340  and  _342
REMARK  148  A    between atoms: _342  and  _343
REMARK  149  A    between atoms: _342  and  _345
REMARK  150  A    between atoms: _345  and  _346
REMARK  151  A    between atoms: _351  and  _352
REMARK  152  A    between atoms: _354  and  _356
REMARK  153  A    between atoms: _356  and  _357
REMARK  154  A    between atoms: _360  and  _362
REMARK  155  A    between atoms: _362  and  _363
REMARK  156  A    between atoms: _362  and  _365
REMARK  157  A    between atoms: _365  and  _366
REMARK  158  A    between atoms: _368  and  _370
REMARK  159  A    between atoms: _370  and  _371
REMARK  160  A    between atoms: _373  and  _375
REMARK  161  A    between atoms: _375  and  _376
REMARK  162  A    between atoms: _378  and  _380
REMARK  163  A    between atoms: _380  and  _381
REMARK  164  A    between atoms: _384  and  _386
REMARK  165  A    between atoms: _386  and  _387
REMARK  166  A    between atoms: _389  and  _391
REMARK  167  A    between atoms: _391  and  _392
REMARK  168  A    between atoms: _391  and  _394
REMARK  169  A    between atoms: _394  and  _395
REMARK  170  A    between atoms: _401  and  _403
REMARK  171  A    between atoms: _403  and  _404
REMARK  172  A    between atoms: _403  and  _406
REMARK  173  A    between atoms: _406  and  _407
REMARK  174  A    between atoms: _410  and  _412
REMARK  175  A    between atoms: _412  and  _413
REMARK  176  A    between atoms: _416  and  _418
REMARK  177  A    between atoms: _418  and  _419
REMARK  178  A    between atoms: _422  and  _424
REMARK  179  A    between atoms: _424  and  _425
REMARK  180  A    between atoms: _424  and  _427
REMARK  181  A    between atoms: _427  and  _428
REMARK  182  A    between atoms: _430  and  _432
REMARK  183  A    between atoms: _432  and  _433
REMARK  184  A    between atoms: _432  and  _435
REMARK  185  A    between atoms: _438  and  _440
REMARK  186  A    between atoms: _440  and  _441
REMARK  187  A    between atoms: _440  and  _443
REMARK  188  A    between atoms: _443  and  _444
REMARK  189  A    between atoms: _450  and  _452
REMARK  190  A    between atoms: _452  and  _453
REMARK  191  A    between atoms: _452  and  _455
REMARK  192  A    between atoms: _455  and  _456
REMARK  193  A    between atoms: _461  and  _463
REMARK  194  A    between atoms: _463  and  _464
REMARK  195  A    between atoms: _463  and  _466
REMARK  196  A    between atoms: _466  and  _467
REMARK                            x       y       z     vdW  Elec       q    Type
REMARK                         _______ _______ _______ _____ _____    ______ ____
ROOT
ATOM      1  O   HOH     1       9.519  20.893  16.995  0.00  0.00    +0.000 OA
ENDROOT
TORSDOF 0
REMARK  Name = ../refined-set-2016/4ewn/4ewn_pocket.pdb
REMARK  196 active torsions:
REMARK  status: ('A' for Active; 'I' for Inactive)
REMARK    1  A    between atoms: _1  and  _3
REMARK    2  A    between atoms: _3  and  _4
REMARK    3  A    between atoms: _3  and  _6
REMARK    4  A    between atoms: _6  and  _7
REMARK    5  A    between atoms: _10  and  _12
REMARK    6  A    between atoms: _12  and  _13
REMARK    7  A    between atoms: _16  and  _18
REMARK    8  A    between atoms: _18  and  _19
REMARK    9  A    between atoms: _18  and  _21
REMARK   10  A    between atoms: _23  and  _25
REMARK   11  A    between atoms: _25  and  _26
REMARK   12  A    between atoms: _25  and  _28
REMARK   13  A    between atoms: _28  and  _29
REMARK   14  A    between atoms: _32  and  _34
REMARK   15  A    between atoms: _34  and  _35
REMARK   16  A    between atoms: _34  and  _37
REMARK   17  A    between atoms: _37  and  _38
REMARK   18  A    between atoms: _41  and  _43
REMARK   19  A    between atoms: _43  and  _44
REMARK   20  A    between atoms: _43  and  _46
REMARK   21  A    between atoms: _49  and  _51
REMARK   22  A    between atoms: _51  and  _52
REMARK   23  A    between atoms: _51  and  _54
REMARK   24  A    between atoms: _54  and  _55
REMARK   25  A    between atoms: _58  and  _60
REMARK   26  A    between atoms: _60  and  _61
REMARK   27  A    between atoms: _60  and  _63
REMARK   28  A    between atoms: _63  and  _64
REMARK   29  A    between atoms: _67  and  _69
REMARK   30  A    between atoms: _69  and  _70
REMARK   31  A    between atoms: _69  and  _72
REMARK   32  A    between atoms: _72  and  _73
REMARK   33  A    between atoms: _76  and  _78
REMARK   34  A    between atoms: _78  and  _79
REMARK   35  A    between atoms: _81  and  _83
REMARK   36  A    between atoms: _83  and  _84
REMARK   37  A    between atoms: _86  and  _88
REMARK   38  A    between atoms: _88  and  _89
REMARK   39  A    between atoms: _91  and  _93
REMARK   40  A    between atoms: _93  and  _94
REMARK   41  A    between atoms: _93  and  _96
REMARK   42  A    between atoms: _96  and  _97
REMARK   43  A    between atoms: _99  and  _101
REMARK   44  A    between atoms: _101  and  _102
REMARK   45  A    between atoms: _101  and  _104
REMARK   46  A    between atoms: _104  and  _105
REMARK   47  A    between atoms: _110  and  _112
REMARK   48  A    between atoms: _112  and  _113
REMARK   49  A    between atoms: _112  and  _115
REMARK   50  A    between atoms: _115  and  _116
REMARK   51  A    between atoms: _119  and  _121
REMARK   52  A    between atoms: _121  and  _122
REMARK   53  A    between atoms: _125  and  _127
REMARK   54  A    between atoms: _127  and  _128
REMARK   55  A    between atoms: _127  and  _130
REMARK   56  A    between atoms: _130  and  _131
REMARK   57  A    between atoms: _134  and  _136
REMARK   58  A    between atoms: _136  and  _137
REMARK   59  A    between atoms: _136  and  _139
REMARK   60  A    between atoms: _142  and  _144
REMARK   61  A    between atoms: _144  and  _145
REMARK   62  A    between atoms: _148  and  _150
REMARK   63  A    between atoms: _150  and  _151
REMARK   64  A    between atoms: _150  and  _153
REMARK   65  A    between atoms: _153  and  _154
REMARK   66  A    between atoms: _154  and  _155
REMARK   67  A    between atoms: _155  and  _156
REMARK   68  A    between atoms: _156  and  _157
REMARK   69  A    between atoms: _161  and  _163
REMARK   70  A    between atoms: _163  and  _164
REMARK   71  A    between atoms: _163  and  _166
REMARK   72  A    between atoms: _166  and  _167
REMARK   73  A    between atoms: _173  and  _175
REMARK   74  A    between atoms: _175  and  _176
REMARK   75  A    between atoms: _175  and  _178
REMARK   76  A    between atoms: _178  and  _179
REMARK   77  A    between atoms: _182  and  _184
REMARK   78  A    between atoms: _184  and  _185
REMARK   79  A    between atoms: _184  and  _187
REMARK   80  A    between atoms: _187  and  _188
REMARK   81  A    between atoms: _193  and  _194
REMARK   82  A    between atoms: _196  and  _198
REMARK   83  A    between atoms: _198  and  _199
REMARK   84  A    between atoms: _198  and  _201
REMARK   85  A    between atoms: _201  and  _202
REMARK   86  A    between atoms: _204  and  _206
REMARK   87  A    between atoms: _206  and  _207
REMARK   88  A    between atoms: _209  and  _211
REMARK   89  A    between atoms: _211  and  _212
REMARK   90  A    between atoms: _211  and  _214
REMARK   91  A    between atoms: _214  and  _215
REMARK   92  A    between atoms: _215  and  _216
REMARK   93  A    between atoms: _216  and  _217
REMARK   94  A    between atoms: _217  and  _218
REMARK   95  A    between atoms: _222  and  _224
REMARK   96  A    between atoms: _224  and  _225
REMARK   97  A    between atoms: _224  and  _227
REMARK   98  A    between atoms: _227  and  _228
REMARK   99  A    between atoms: _231  and  _233
REMARK  100  A    between atoms: _233  and  _234
REMARK  101  A    between atoms: _233  and  _236
REMARK  102  A    between atoms: _236  and  _237
REMARK  103  A    between atoms: _240  and  _242
REMARK  104  A    between atoms: _242  and  _243
REMARK  105  A    between atoms: _242  and  _245
REMARK  106  A    between atoms: _245  and  _246
REMARK  107  A    between atoms: _249  and  _251
REMARK  108  A    between atoms: _251  and  _252
REMARK  109  A    between atoms: _251  and  _254
REMARK  110  A    between atoms: _254  and  _255
REMARK  111  A    between atoms: _257  and  _259
REMARK  112  A    between atoms: _259  and  _260
REMARK  113  A    between atoms: _259  and  _262
REMARK  114  A    between atoms: _262  and  _263
REMARK  115  A    between atoms: _266  and  _268
REMARK  116  A    between atoms: _268  and  _269
REMARK  117  A    between atoms: _268  and  _271
REMARK  118  A    between atoms: _271  and  _272
REMARK  119  A    between atoms: _275  and  _277
REMARK  120  A    between atoms: _277  and  _278
REMARK  121  A    between atoms: _277  and  _280
REMARK  122  A    between atoms: _280  and  _281
REMARK  123  A    between atoms: _281  and  _282
REMARK  124  A    between atoms: _282  and  _283
REMARK  125  A    between atoms: _292  and  _294
REMARK  126  A    between atoms: _294  and  _295
REMARK  127  A    between atoms: _294  and  _297
REMARK  128  A    between atoms: _300  and  _302
REMARK  129  A    between atoms: _302  and  _303
REMARK  130  A    between atoms: _305  and  _307
REMARK  131  A    between atoms: _307  and  _308
REMARK  132  A    between atoms: _307  and  _310
REMARK  133  A    between atoms: _310  and  _311
REMARK  134  A    between atoms: _314  and  _316
REMARK  135  A    between atoms: _316  and  _317
REMARK  136  A    between atoms: _316  and  _319
REMARK  137  A    between atoms: _319  and  _320
REMARK  138  A    between atoms: _320  and  _321
REMARK  139  A    between atoms: _321  and  _322
REMARK  140  A    between atoms: _322  and  _323
REMARK  141  A    between atoms: _327  and  _329
REMARK  142  A    between atoms: _329  and  _330
REMARK  143  A    between atoms: _329  and  _332
REMARK  144  A    between atoms: _332  and  _333
REMARK  145  A    between atoms: _335  and  _337
REMARK  146  A    between atoms: _337  and  _338
REMARK  147  A    between atoms: _340  and  _342
REMARK  148  A    between atoms: _342  and  _343
REMARK  149  A    between atoms: _342  and  _345
REMARK  150  A    between atoms: _345  and  _346
REMARK  151  A    between atoms: _351  and  _352
REMARK  152  A    between atoms: _354  and  _356
REMARK  153  A    between atoms: _356  and  _357
REMARK  154  A    between atoms: _360  and  _362
REMARK  155  A    between atoms: _362  and  _363
REMARK  156  A    between atoms: _362  and  _365
REMARK  157  A    between atoms: _365  and  _366
REMARK  158  A    between atoms: _368  and  _370
REMARK  159  A    between atoms: _370  and  _371
REMARK  160  A    between atoms: _373  and  _375
REMARK  161  A    between atoms: _375  and  _376
REMARK  162  A    between atoms: _378  and  _380
REMARK  163  A    between atoms: _380  and  _381
REMARK  164  A    between atoms: _384  and  _386
REMARK  165  A    between atoms: _386  and  _387
REMARK  166  A    between atoms: _389  and  _391
REMARK  167  A    between atoms: _391  and  _392
REMARK  168  A    between atoms: _391  and  _394
REMARK  169  A    between atoms: _394  and  _395
REMARK  170  A    between atoms: _401  and  _403
REMARK  171  A    between atoms: _403  and  _404
REMARK  172  A    between atoms: _403  and  _406
REMARK  173  A    between atoms: _406  and  _407
REMARK  174  A    between atoms: _410  and  _412
REMARK  175  A    between atoms: _412  and  _413
REMARK  176  A    between atoms: _416  and  _418
REMARK  177  A    between atoms: _418  and  _419
REMARK  178  A    between atoms: _422  and  _424
REMARK  179  A    between atoms: _424  and  _425
REMARK  180  A    between atoms: _424  and  _427
REMARK  181  A    between atoms: _427  and  _428
REMARK  182  A    between atoms: _430  and  _432
REMARK  183  A    between atoms: _432  and  _433
REMARK  184  A    between atoms: _432  and  _435
REMARK  185  A    between atoms: _438  and  _440
REMARK  186  A    between atoms: _440  and  _441
REMARK  187  A    between atoms: _440  and  _443
REMARK  188  A    between atoms: _443  and  _444
REMARK  189  A    between atoms: _450  and  _452
REMARK  190  A    between atoms: _452  and  _453
REMARK  191  A    between atoms: _452  and  _455
REMARK  192  A    between atoms: _455  and  _456
REMARK  193  A    between atoms: _461  and  _463
REMARK  194  A    between atoms: _463  and  _464
REMARK  195  A    between atoms: _463  and  _466
REMARK  196  A    between atoms: _466  and  _467
REMARK                            x       y       z     vdW  Elec       q    Type
REMARK                         _______ _______ _______ _____ _____    ______ ____
ROOT
ATOM      1  O   HOH     1       9.694  20.787  14.434  0.00  0.00    +0.000 OA
ENDROOT
TORSDOF 0
REMARK  Name = ../refined-set-2016/4ewn/4ewn_pocket.pdb
REMARK  196 active torsions:
REMARK  status: ('A' for Active; 'I' for Inactive)
REMARK    1  A    between atoms: _1  and  _3
REMARK    2  A    between atoms: _3  and  _4
REMARK    3  A    between atoms: _3  and  _6
REMARK    4  A    between atoms: _6  and  _7
REMARK    5  A    between atoms: _10  and  _12
REMARK    6  A    between atoms: _12  and  _13
REMARK    7  A    between atoms: _16  and  _18
REMARK    8  A    between atoms: _18  and  _19
REMARK    9  A    between atoms: _18  and  _21
REMARK   10  A    between atoms: _23  and  _25
REMARK   11  A    between atoms: _25  and  _26
REMARK   12  A    between atoms: _25  and  _28
REMARK   13  A    between atoms: _28  and  _29
REMARK   14  A    between atoms: _32  and  _34
REMARK   15  A    between atoms: _34  and  _35
REMARK   16  A    between atoms: _34  and  _37
REMARK   17  A    between atoms: _37  and  _38
REMARK   18  A    between atoms: _41  and  _43
REMARK   19  A    between atoms: _43  and  _44
REMARK   20  A    between atoms: _43  and  _46
REMARK   21  A    between atoms: _49  and  _51
REMARK   22  A    between atoms: _51  and  _52
REMARK   23  A    between atoms: _51  and  _54
REMARK   24  A    between atoms: _54  and  _55
REMARK   25  A    between atoms: _58  and  _60
REMARK   26  A    between atoms: _60  and  _61
REMARK   27  A    between atoms: _60  and  _63
REMARK   28  A    between atoms: _63  and  _64
REMARK   29  A    between atoms: _67  and  _69
REMARK   30  A    between atoms: _69  and  _70
REMARK   31  A    between atoms: _69  and  _72
REMARK   32  A    between atoms: _72  and  _73
REMARK   33  A    between atoms: _76  and  _78
REMARK   34  A    between atoms: _78  and  _79
REMARK   35  A    between atoms: _81  and  _83
REMARK   36  A    between atoms: _83  and  _84
REMARK   37  A    between atoms: _86  and  _88
REMARK   38  A    between atoms: _88  and  _89
REMARK   39  A    between atoms: _91  and  _93
REMARK   40  A    between atoms: _93  and  _94
REMARK   41  A    between atoms: _93  and  _96
REMARK   42  A    between atoms: _96  and  _97
REMARK   43  A    between atoms: _99  and  _101
REMARK   44  A    between atoms: _101  and  _102
REMARK   45  A    between atoms: _101  and  _104
REMARK   46  A    between atoms: _104  and  _105
REMARK   47  A    between atoms: _110  and  _112
REMARK   48  A    between atoms: _112  and  _113
REMARK   49  A    between atoms: _112  and  _115
REMARK   50  A    between atoms: _115  and  _116
REMARK   51  A    between atoms: _119  and  _121
REMARK   52  A    between atoms: _121  and  _122
REMARK   53  A    between atoms: _125  and  _127
REMARK   54  A    between atoms: _127  and  _128
REMARK   55  A    between atoms: _127  and  _130
REMARK   56  A    between atoms: _130  and  _131
REMARK   57  A    between atoms: _134  and  _136
REMARK   58  A    between atoms: _136  and  _137
REMARK   59  A    between atoms: _136  and  _139
REMARK   60  A    between atoms: _142  and  _144
REMARK   61  A    between atoms: _144  and  _145
REMARK   62  A    between atoms: _148  and  _150
REMARK   63  A    between atoms: _150  and  _151
REMARK   64  A    between atoms: _150  and  _153
REMARK   65  A    between atoms: _153  and  _154
REMARK   66  A    between atoms: _154  and  _155
REMARK   67  A    between atoms: _155  and  _156
REMARK   68  A    between atoms: _156  and  _157
REMARK   69  A    between atoms: _161  and  _163
REMARK   70  A    between atoms: _163  and  _164
REMARK   71  A    between atoms: _163  and  _166
REMARK   72  A    between atoms: _166  and  _167
REMARK   73  A    between atoms: _173  and  _175
REMARK   74  A    between atoms: _175  and  _176
REMARK   75  A    between atoms: _175  and  _178
REMARK   76  A    between atoms: _178  and  _179
REMARK   77  A    between atoms: _182  and  _184
REMARK   78  A    between atoms: _184  and  _185
REMARK   79  A    between atoms: _184  and  _187
REMARK   80  A    between atoms: _187  and  _188
REMARK   81  A    between atoms: _193  and  _194
REMARK   82  A    between atoms: _196  and  _198
REMARK   83  A    between atoms: _198  and  _199
REMARK   84  A    between atoms: _198  and  _201
REMARK   85  A    between atoms: _201  and  _202
REMARK   86  A    between atoms: _204  and  _206
REMARK   87  A    between atoms: _206  and  _207
REMARK   88  A    between atoms: _209  and  _211
REMARK   89  A    between atoms: _211  and  _212
REMARK   90  A    between atoms: _211  and  _214
REMARK   91  A    between atoms: _214  and  _215
REMARK   92  A    between atoms: _215  and  _216
REMARK   93  A    between atoms: _216  and  _217
REMARK   94  A    between atoms: _217  and  _218
REMARK   95  A    between atoms: _222  and  _224
REMARK   96  A    between atoms: _224  and  _225
REMARK   97  A    between atoms: _224  and  _227
REMARK   98  A    between atoms: _227  and  _228
REMARK   99  A    between atoms: _231  and  _233
REMARK  100  A    between atoms: _233  and  _234
REMARK  101  A    between atoms: _233  and  _236
REMARK  102  A    between atoms: _236  and  _237
REMARK  103  A    between atoms: _240  and  _242
REMARK  104  A    between atoms: _242  and  _243
REMARK  105  A    between atoms: _242  and  _245
REMARK  106  A    between atoms: _245  and  _246
REMARK  107  A    between atoms: _249  and  _251
REMARK  108  A    between atoms: _251  and  _252
REMARK  109  A    between atoms: _251  and  _254
REMARK  110  A    between atoms: _254  and  _255
REMARK  111  A    between atoms: _257  and  _259
REMARK  112  A    between atoms: _259  and  _260
REMARK  113  A    between atoms: _259  and  _262
REMARK  114  A    between atoms: _262  and  _263
REMARK  115  A    between atoms: _266  and  _268
REMARK  116  A    between atoms: _268  and  _269
REMARK  117  A    between atoms: _268  and  _271
REMARK  118  A    between atoms: _271  and  _272
REMARK  119  A    between atoms: _275  and  _277
REMARK  120  A    between atoms: _277  and  _278
REMARK  121  A    between atoms: _277  and  _280
REMARK  122  A    between atoms: _280  and  _281
REMARK  123  A    between atoms: _281  and  _282
REMARK  124  A    between atoms: _282  and  _283
REMARK  125  A    between atoms: _292  and  _294
REMARK  126  A    between atoms: _294  and  _295
REMARK  127  A    between atoms: _294  and  _297
REMARK  128  A    between atoms: _300  and  _302
REMARK  129  A    between atoms: _302  and  _303
REMARK  130  A    between atoms: _305  and  _307
REMARK  131  A    between atoms: _307  and  _308
REMARK  132  A    between atoms: _307  and  _310
REMARK  133  A    between atoms: _310  and  _311
REMARK  134  A    between atoms: _314  and  _316
REMARK  135  A    between atoms: _316  and  _317
REMARK  136  A    between atoms: _316  and  _319
REMARK  137  A    between atoms: _319  and  _320
REMARK  138  A    between atoms: _320  and  _321
REMARK  139  A    between atoms: _321  and  _322
REMARK  140  A    between atoms: _322  and  _323
REMARK  141  A    between atoms: _327  and  _329
REMARK  142  A    between atoms: _329  and  _330
REMARK  143  A    between atoms: _329  and  _332
REMARK  144  A    between atoms: _332  and  _333
REMARK  145  A    between atoms: _335  and  _337
REMARK  146  A    between atoms: _337  and  _338
REMARK  147  A    between atoms: _340  and  _342
REMARK  148  A    between atoms: _342  and  _343
REMARK  149  A    between atoms: _342  and  _345
REMARK  150  A    between atoms: _345  and  _346
REMARK  151  A    between atoms: _351  and  _352
REMARK  152  A    between atoms: _354  and  _356
REMARK  153  A    between atoms: _356  and  _357
REMARK  154  A    between atoms: _360  and  _362
REMARK  155  A    between atoms: _362  and  _363
REMARK  156  A    between atoms: _362  and  _365
REMARK  157  A    between atoms: _365  and  _366
REMARK  158  A    between atoms: _368  and  _370
REMARK  159  A    between atoms: _370  and  _371
REMARK  160  A    between atoms: _373  and  _375
REMARK  161  A    between atoms: _375  and  _376
REMARK  162  A    between atoms: _378  and  _380
REMARK  163  A    between atoms: _380  and  _381
REMARK  164  A    between atoms: _384  and  _386
REMARK  165  A    between atoms: _386  and  _387
REMARK  166  A    between atoms: _389  and  _391
REMARK  167  A    between atoms: _391  and  _392
REMARK  168  A    between atoms: _391  and  _394
REMARK  169  A    between atoms: _394  and  _395
REMARK  170  A    between atoms: _401  and  _403
REMARK  171  A    between atoms: _403  and  _404
REMARK  172  A    between atoms: _403  and  _406
REMARK  173  A    between atoms: _406  and  _407
REMARK  174  A    between atoms: _410  and  _412
REMARK  175  A    between atoms: _412  and  _413
REMARK  176  A    between atoms: _416  and  _418
REMARK  177  A    between atoms: _418  and  _419
REMARK  178  A    between atoms: _422  and  _424
REMARK  179  A    between atoms: _424  and  _425
REMARK  180  A    between atoms: _424  and  _427
REMARK  181  A    between atoms: _427  and  _428
REMARK  182  A    between atoms: _430  and  _432
REMARK  183  A    between atoms: _432  and  _433
REMARK  184  A    between atoms: _432  and  _435
REMARK  185  A    between atoms: _438  and  _440
REMARK  186  A    between atoms: _440  and  _441
REMARK  187  A    between atoms: _440  and  _443
REMARK  188  A    between atoms: _443  and  _444
REMARK  189  A    between atoms: _450  and  _452
REMARK  190  A    between atoms: _452  and  _453
REMARK  191  A    between atoms: _452  and  _455
REMARK  192  A    between atoms: _455  and  _456
REMARK  193  A    between atoms: _461  and  _463
REMARK  194  A    between atoms: _463  and  _464
REMARK  195  A    between atoms: _463  and  _466
REMARK  196  A    between atoms: _466  and  _467
REMARK                            x       y       z     vdW  Elec       q    Type
REMARK                         _______ _______ _______ _____ _____    ______ ____
ROOT
ATOM      1  O   HOH     1       8.951  24.852  16.323  0.00  0.00    +0.000 OA
ENDROOT
TORSDOF 0
