REMARK  Name = ../refined-set-2016/3d7z/3d7z_pocket.pdb
REMARK  249 active torsions:
REMARK  status: ('A' for Active; 'I' for Inactive)
REMARK    1  A    between atoms: _1  and  _3
REMARK    2  A    between atoms: _3  and  _4
REMARK    3  A    between atoms: _3  and  _6
REMARK    4  A    between atoms: _9  and  _11
REMARK    5  A    between atoms: _11  and  _12
REMARK    6  A    between atoms: _14  and  _16
REMARK    7  A    between atoms: _16  and  _17
REMARK    8  A    between atoms: _16  and  _19
REMARK    9  A    between atoms: _19  and  _20
REMARK   10  A    between atoms: _22  and  _24
REMARK   11  A    between atoms: _24  and  _25
REMARK   12  A    between atoms: _28  and  _30
REMARK   13  A    between atoms: _30  and  _31
REMARK   14  A    between atoms: _30  and  _33
REMARK   15  A    between atoms: _33  and  _34
REMARK   16  A    between atoms: _39  and  _40
REMARK   17  A    between atoms: _42  and  _44
REMARK   18  A    between atoms: _44  and  _45
REMARK   19  A    between atoms: _47  and  _49
REMARK   20  A    between atoms: _49  and  _50
REMARK   21  A    between atoms: _49  and  _52
REMARK   22  A    between atoms: _52  and  _53
REMARK   23  A    between atoms: _55  and  _57
REMARK   24  A    between atoms: _57  and  _58
REMARK   25  A    between atoms: _57  and  _60
REMARK   26  A    between atoms: _63  and  _65
REMARK   27  A    between atoms: _65  and  _66
REMARK   28  A    between atoms: _65  and  _68
REMARK   29  A    between atoms: _70  and  _72
REMARK   30  A    between atoms: _72  and  _73
REMARK   31  A    between atoms: _76  and  _78
REMARK   32  A    between atoms: _78  and  _79
REMARK   33  A    between atoms: _78  and  _81
REMARK   34  A    between atoms: _81  and  _82
REMARK   35  A    between atoms: _82  and  _83
REMARK   36  A    between atoms: _83  and  _84
REMARK   37  A    between atoms: _93  and  _95
REMARK   38  A    between atoms: _95  and  _96
REMARK   39  A    between atoms: _95  and  _98
REMARK   40  A    between atoms: _101  and  _103
REMARK   41  A    between atoms: _103  and  _104
REMARK   42  A    between atoms: _107  and  _109
REMARK   43  A    between atoms: _109  and  _110
REMARK   44  A    between atoms: _109  and  _112
REMARK   45  A    between atoms: _115  and  _117
REMARK   46  A    between atoms: _117  and  _118
REMARK   47  A    between atoms: _117  and  _120
REMARK   48  A    between atoms: _120  and  _121
REMARK   49  A    between atoms: _121  and  _122
REMARK   50  A    between atoms: _122  and  _123
REMARK   51  A    between atoms: _123  and  _124
REMARK   52  A    between atoms: _128  and  _130
REMARK   53  A    between atoms: _130  and  _131
REMARK   54  A    between atoms: _130  and  _133
REMARK   55  A    between atoms: _133  and  _134
REMARK   56  A    between atoms: _134  and  _135
REMARK   57  A    between atoms: _135  and  _136
REMARK   58  A    between atoms: _136  and  _137
REMARK   59  A    between atoms: _141  and  _143
REMARK   60  A    between atoms: _143  and  _144
REMARK   61  A    between atoms: _143  and  _146
REMARK   62  A    between atoms: _146  and  _147
REMARK   63  A    between atoms: _150  and  _152
REMARK   64  A    between atoms: _152  and  _153
REMARK   65  A    between atoms: _152  and  _155
REMARK   66  A    between atoms: _155  and  _156
REMARK   67  A    between atoms: _156  and  _157
REMARK   68  A    between atoms: _157  and  _158
REMARK   69  A    between atoms: _167  and  _169
REMARK   70  A    between atoms: _169  and  _170
REMARK   71  A    between atoms: _169  and  _172
REMARK   72  A    between atoms: _172  and  _173
REMARK   73  A    between atoms: _173  and  _174
REMARK   74  A    between atoms: _174  and  _175
REMARK   75  A    between atoms: _184  and  _186
REMARK   76  A    between atoms: _186  and  _187
REMARK   77  A    between atoms: _186  and  _189
REMARK   78  A    between atoms: _189  and  _190
REMARK   79  A    between atoms: _190  and  _191
REMARK   80  A    between atoms: _194  and  _196
REMARK   81  A    between atoms: _196  and  _197
REMARK   82  A    between atoms: _196  and  _199
REMARK   83  A    between atoms: _199  and  _200
REMARK   84  A    between atoms: _203  and  _205
REMARK   85  A    between atoms: _205  and  _206
REMARK   86  A    between atoms: _205  and  _208
REMARK   87  A    between atoms: _208  and  _209
REMARK   88  A    between atoms: _209  and  _210
REMARK   89  A    between atoms: _210  and  _211
REMARK   90  A    between atoms: _220  and  _222
REMARK   91  A    between atoms: _222  and  _223
REMARK   92  A    between atoms: _222  and  _225
REMARK   93  A    between atoms: _225  and  _226
REMARK   94  A    between atoms: _229  and  _231
REMARK   95  A    between atoms: _231  and  _232
REMARK   96  A    between atoms: _231  and  _234
REMARK   97  A    between atoms: _234  and  _235
REMARK   98  A    between atoms: _238  and  _240
REMARK   99  A    between atoms: _240  and  _241
REMARK  100  A    between atoms: _240  and  _243
REMARK  101  A    between atoms: _243  and  _244
REMARK  102  A    between atoms: _244  and  _245
REMARK  103  A    between atoms: _245  and  _246
REMARK  104  A    between atoms: _246  and  _247
REMARK  105  A    between atoms: _251  and  _253
REMARK  106  A    between atoms: _253  and  _254
REMARK  107  A    between atoms: _253  and  _256
REMARK  108  A    between atoms: _256  and  _257
REMARK  109  A    between atoms: _257  and  _258
REMARK  110  A    between atoms: _260  and  _262
REMARK  111  A    between atoms: _262  and  _263
REMARK  112  A    between atoms: _262  and  _265
REMARK  113  A    between atoms: _268  and  _270
REMARK  114  A    between atoms: _270  and  _271
REMARK  115  A    between atoms: _270  and  _273
REMARK  116  A    between atoms: _273  and  _274
REMARK  117  A    between atoms: _277  and  _279
REMARK  118  A    between atoms: _279  and  _280
REMARK  119  A    between atoms: _282  and  _284
REMARK  120  A    between atoms: _284  and  _285
REMARK  121  A    between atoms: _284  and  _287
REMARK  122  A    between atoms: _287  and  _288
REMARK  123  A    between atoms: _291  and  _293
REMARK  124  A    between atoms: _293  and  _294
REMARK  125  A    between atoms: _293  and  _296
REMARK  126  A    between atoms: _296  and  _297
REMARK  127  A    between atoms: _300  and  _302
REMARK  128  A    between atoms: _302  and  _303
REMARK  129  A    between atoms: _302  and  _305
REMARK  130  A    between atoms: _305  and  _306
REMARK  131  A    between atoms: _309  and  _311
REMARK  132  A    between atoms: _311  and  _312
REMARK  133  A    between atoms: _311  and  _314
REMARK  134  A    between atoms: _314  and  _315
REMARK  135  A    between atoms: _320  and  _321
REMARK  136  A    between atoms: _323  and  _325
REMARK  137  A    between atoms: _325  and  _326
REMARK  138  A    between atoms: _325  and  _328
REMARK  139  A    between atoms: _328  and  _329
REMARK  140  A    between atoms: _332  and  _334
REMARK  141  A    between atoms: _334  and  _335
REMARK  142  A    between atoms: _334  and  _337
REMARK  143  A    between atoms: _340  and  _342
REMARK  144  A    between atoms: _342  and  _343
REMARK  145  A    between atoms: _342  and  _345
REMARK  146  A    between atoms: _345  and  _346
REMARK  147  A    between atoms: _349  and  _351
REMARK  148  A    between atoms: _351  and  _352
REMARK  149  A    between atoms: _351  and  _354
REMARK  150  A    between atoms: _354  and  _355
REMARK  151  A    between atoms: _360  and  _362
REMARK  152  A    between atoms: _362  and  _363
REMARK  153  A    between atoms: _362  and  _365
REMARK  154  A    between atoms: _365  and  _366
REMARK  155  A    between atoms: _369  and  _371
REMARK  156  A    between atoms: _371  and  _372
REMARK  157  A    between atoms: _371  and  _374
REMARK  158  A    between atoms: _374  and  _375
REMARK  159  A    between atoms: _375  and  _376
REMARK  160  A    between atoms: _378  and  _380
REMARK  161  A    between atoms: _380  and  _381
REMARK  162  A    between atoms: _383  and  _385
REMARK  163  A    between atoms: _385  and  _386
REMARK  164  A    between atoms: _389  and  _391
REMARK  165  A    between atoms: _391  and  _392
REMARK  166  A    between atoms: _391  and  _394
REMARK  167  A    between atoms: _394  and  _395
REMARK  168  A    between atoms: _398  and  _400
REMARK  169  A    between atoms: _400  and  _401
REMARK  170  A    between atoms: _400  and  _403
REMARK  171  A    between atoms: _403  and  _404
REMARK  172  A    between atoms: _407  and  _409
REMARK  173  A    between atoms: _409  and  _410
REMARK  174  A    between atoms: _409  and  _412
REMARK  175  A    between atoms: _412  and  _413
REMARK  176  A    between atoms: _418  and  _420
REMARK  177  A    between atoms: _420  and  _421
REMARK  178  A    between atoms: _420  and  _423
REMARK  179  A    between atoms: _423  and  _424
REMARK  180  A    between atoms: _429  and  _431
REMARK  181  A    between atoms: _431  and  _432
REMARK  182  A    between atoms: _431  and  _434
REMARK  183  A    between atoms: _434  and  _435
REMARK  184  A    between atoms: _438  and  _440
REMARK  185  A    between atoms: _440  and  _441
REMARK  186  A    between atoms: _440  and  _443
REMARK  187  A    between atoms: _443  and  _444
REMARK  188  A    between atoms: _447  and  _449
REMARK  189  A    between atoms: _449  and  _450
REMARK  190  A    between atoms: _449  and  _452
REMARK  191  A    between atoms: _452  and  _453
REMARK  192  A    between atoms: _459  and  _460
REMARK  193  A    between atoms: _465  and  _467
REMARK  194  A    between atoms: _467  and  _468
REMARK  195  A    between atoms: _467  and  _470
REMARK  196  A    between atoms: _470  and  _471
REMARK  197  A    between atoms: _473  and  _475
REMARK  198  A    between atoms: _475  and  _476
REMARK  199  A    between atoms: _475  and  _478
REMARK  200  A    between atoms: _478  and  _479
REMARK  201  A    between atoms: _484  and  _486
REMARK  202  A    between atoms: _486  and  _487
REMARK  203  A    between atoms: _486  and  _489
REMARK  204  A    between atoms: _489  and  _490
REMARK  205  A    between atoms: _493  and  _495
REMARK  206  A    between atoms: _495  and  _496
REMARK  207  A    between atoms: _499  and  _501
REMARK  208  A    between atoms: _501  and  _502
REMARK  209  A    between atoms: _501  and  _504
REMARK  210  A    between atoms: _507  and  _509
REMARK  211  A    between atoms: _509  and  _510
REMARK  212  A    between atoms: _509  and  _512
REMARK  213  A    between atoms: _512  and  _513
REMARK  214  A    between atoms: _518  and  _520
REMARK  215  A    between atoms: _520  and  _521
REMARK  216  A    between atoms: _520  and  _523
REMARK  217  A    between atoms: _523  and  _524
REMARK  218  A    between atoms: _524  and  _525
REMARK  219  A    between atoms: _525  and  _526
REMARK  220  A    between atoms: _526  and  _527
REMARK  221  A    between atoms: _531  and  _533
REMARK  222  A    between atoms: _533  and  _534
REMARK  223  A    between atoms: _533  and  _536
REMARK  224  A    between atoms: _536  and  _537
REMARK  225  A    between atoms: _540  and  _542
REMARK  226  A    between atoms: _542  and  _543
REMARK  227  A    between atoms: _542  and  _545
REMARK  228  A    between atoms: _545  and  _546
REMARK  229  A    between atoms: _549  and  _551
REMARK  230  A    between atoms: _551  and  _552
REMARK  231  A    between atoms: _551  and  _554
REMARK  232  A    between atoms: _554  and  _555
REMARK  233  A    between atoms: _558  and  _560
REMARK  234  A    between atoms: _560  and  _561
REMARK  235  A    between atoms: _560  and  _563
REMARK  236  A    between atoms: _563  and  _564
REMARK  237  A    between atoms: _570  and  _572
REMARK  238  A    between atoms: _572  and  _573
REMARK  239  A    between atoms: _575  and  _577
REMARK  240  A    between atoms: _577  and  _578
REMARK  241  A    between atoms: _577  and  _580
REMARK  242  A    between atoms: _580  and  _581
REMARK  243  A    between atoms: _584  and  _586
REMARK  244  A    between atoms: _586  and  _587
REMARK  245  A    between atoms: _592  and  _593
REMARK  246  A    between atoms: _592  and  _595
REMARK  247  A    between atoms: _595  and  _596
REMARK  248  A    between atoms: _596  and  _597
REMARK  249  A    between atoms: _597  and  _598
REMARK                            x       y       z     vdW  Elec       q    Type
REMARK                         _______ _______ _______ _____ _____    ______ ____
ROOT
ATOM      1  CA  GLY A   2      49.101  30.080  26.896  0.00  0.00    +0.176 C 
ENDROOT
BRANCH   1   3
ATOM      2  C   VAL A   1      47.884  31.321  25.164  0.00  0.00    +0.238 C 
ATOM      3  N   GLY A   2      48.888  31.251  26.036  0.00  0.00    -0.296 N 
ATOM      4  H   GLY A   2      49.545  32.054  26.111  0.00  0.00    +0.150 HD
ATOM      5  O   VAL A   1      47.101  30.388  24.958  0.00  0.00    -0.274 OA
BRANCH   2   6
ATOM      6  CA  VAL A   1      47.736  32.659  24.429  0.00  0.00    +0.145 C 
BRANCH   6   7
ATOM      7  CB  VAL A   1      47.415  33.750  25.512  0.00  0.00    +0.025 C 
ATOM      8  CG2 VAL A   1      45.954  33.752  25.888  0.00  0.00    +0.002 C 
ATOM      9  CG1 VAL A   1      47.894  35.132  25.079  0.00  0.00    +0.002 C 
ENDBRANCH   6   7
BRANCH   6  10
ATOM     10  N   VAL A   1      46.761  32.621  23.317  0.00  0.00    -0.238 NA
ATOM     11  H   VAL A   1      45.849  32.142  23.461  0.00  0.00    +0.142 HD
ENDBRANCH   6  10
ENDBRANCH   2   6
ENDBRANCH   1   3
BRANCH   1  12
ATOM     12  C   GLY A   2      49.983  28.999  26.293  0.00  0.00    +0.243 C 
ATOM     13  O   GLY A   2      50.438  28.100  27.013  0.00  0.00    -0.273 OA
ATOM     14  N   SER A   3      50.239  29.092  24.982  0.00  0.00    -0.296 N 
ATOM     15  H   SER A   3      49.963  29.962  24.484  0.00  0.00    +0.150 HD
BRANCH  14  16
ATOM     16  CA  SER A   3      50.895  28.018  24.209  0.00  0.00    +0.166 C 
BRANCH  16  17
ATOM     17  C   SER A   3      50.196  26.648  24.401  0.00  0.00    +0.229 C 
ATOM     18  O   SER A   3      50.852  25.619  24.597  0.00  0.00    -0.286 OA
ENDBRANCH  16  17
BRANCH  16  19
ATOM     19  CB  SER A   3      52.400  27.938  24.529  0.00  0.00    +0.165 C 
BRANCH  19  20
ATOM     20  OG  SER A   3      53.007  29.218  24.458  0.00  0.00    -0.380 OA
ATOM     21  H   SER A   3      53.971  29.137  24.668  0.00  0.00    +0.211 HD
ENDBRANCH  19  20
ENDBRANCH  16  19
ENDBRANCH  14  16
ENDBRANCH   1  12
TORSDOF 9
REMARK  Name = ../refined-set-2016/3d7z/3d7z_pocket.pdb
REMARK  249 active torsions:
REMARK  status: ('A' for Active; 'I' for Inactive)
REMARK    1  A    between atoms: _1  and  _3
REMARK    2  A    between atoms: _3  and  _4
REMARK    3  A    between atoms: _3  and  _6
REMARK    4  A    between atoms: _9  and  _11
REMARK    5  A    between atoms: _11  and  _12
REMARK    6  A    between atoms: _14  and  _16
REMARK    7  A    between atoms: _16  and  _17
REMARK    8  A    between atoms: _16  and  _19
REMARK    9  A    between atoms: _19  and  _20
REMARK   10  A    between atoms: _22  and  _24
REMARK   11  A    between atoms: _24  and  _25
REMARK   12  A    between atoms: _28  and  _30
REMARK   13  A    between atoms: _30  and  _31
REMARK   14  A    between atoms: _30  and  _33
REMARK   15  A    between atoms: _33  and  _34
REMARK   16  A    between atoms: _39  and  _40
REMARK   17  A    between atoms: _42  and  _44
REMARK   18  A    between atoms: _44  and  _45
REMARK   19  A    between atoms: _47  and  _49
REMARK   20  A    between atoms: _49  and  _50
REMARK   21  A    between atoms: _49  and  _52
REMARK   22  A    between atoms: _52  and  _53
REMARK   23  A    between atoms: _55  and  _57
REMARK   24  A    between atoms: _57  and  _58
REMARK   25  A    between atoms: _57  and  _60
REMARK   26  A    between atoms: _63  and  _65
REMARK   27  A    between atoms: _65  and  _66
REMARK   28  A    between atoms: _65  and  _68
REMARK   29  A    between atoms: _70  and  _72
REMARK   30  A    between atoms: _72  and  _73
REMARK   31  A    between atoms: _76  and  _78
REMARK   32  A    between atoms: _78  and  _79
REMARK   33  A    between atoms: _78  and  _81
REMARK   34  A    between atoms: _81  and  _82
REMARK   35  A    between atoms: _82  and  _83
REMARK   36  A    between atoms: _83  and  _84
REMARK   37  A    between atoms: _93  and  _95
REMARK   38  A    between atoms: _95  and  _96
REMARK   39  A    between atoms: _95  and  _98
REMARK   40  A    between atoms: _101  and  _103
REMARK   41  A    between atoms: _103  and  _104
REMARK   42  A    between atoms: _107  and  _109
REMARK   43  A    between atoms: _109  and  _110
REMARK   44  A    between atoms: _109  and  _112
REMARK   45  A    between atoms: _115  and  _117
REMARK   46  A    between atoms: _117  and  _118
REMARK   47  A    between atoms: _117  and  _120
REMARK   48  A    between atoms: _120  and  _121
REMARK   49  A    between atoms: _121  and  _122
REMARK   50  A    between atoms: _122  and  _123
REMARK   51  A    between atoms: _123  and  _124
REMARK   52  A    between atoms: _128  and  _130
REMARK   53  A    between atoms: _130  and  _131
REMARK   54  A    between atoms: _130  and  _133
REMARK   55  A    between atoms: _133  and  _134
REMARK   56  A    between atoms: _134  and  _135
REMARK   57  A    between atoms: _135  and  _136
REMARK   58  A    between atoms: _136  and  _137
REMARK   59  A    between atoms: _141  and  _143
REMARK   60  A    between atoms: _143  and  _144
REMARK   61  A    between atoms: _143  and  _146
REMARK   62  A    between atoms: _146  and  _147
REMARK   63  A    between atoms: _150  and  _152
REMARK   64  A    between atoms: _152  and  _153
REMARK   65  A    between atoms: _152  and  _155
REMARK   66  A    between atoms: _155  and  _156
REMARK   67  A    between atoms: _156  and  _157
REMARK   68  A    between atoms: _157  and  _158
REMARK   69  A    between atoms: _167  and  _169
REMARK   70  A    between atoms: _169  and  _170
REMARK   71  A    between atoms: _169  and  _172
REMARK   72  A    between atoms: _172  and  _173
REMARK   73  A    between atoms: _173  and  _174
REMARK   74  A    between atoms: _174  and  _175
REMARK   75  A    between atoms: _184  and  _186
REMARK   76  A    between atoms: _186  and  _187
REMARK   77  A    between atoms: _186  and  _189
REMARK   78  A    between atoms: _189  and  _190
REMARK   79  A    between atoms: _190  and  _191
REMARK   80  A    between atoms: _194  and  _196
REMARK   81  A    between atoms: _196  and  _197
REMARK   82  A    between atoms: _196  and  _199
REMARK   83  A    between atoms: _199  and  _200
REMARK   84  A    between atoms: _203  and  _205
REMARK   85  A    between atoms: _205  and  _206
REMARK   86  A    between atoms: _205  and  _208
REMARK   87  A    between atoms: _208  and  _209
REMARK   88  A    between atoms: _209  and  _210
REMARK   89  A    between atoms: _210  and  _211
REMARK   90  A    between atoms: _220  and  _222
REMARK   91  A    between atoms: _222  and  _223
REMARK   92  A    between atoms: _222  and  _225
REMARK   93  A    between atoms: _225  and  _226
REMARK   94  A    between atoms: _229  and  _231
REMARK   95  A    between atoms: _231  and  _232
REMARK   96  A    between atoms: _231  and  _234
REMARK   97  A    between atoms: _234  and  _235
REMARK   98  A    between atoms: _238  and  _240
REMARK   99  A    between atoms: _240  and  _241
REMARK  100  A    between atoms: _240  and  _243
REMARK  101  A    between atoms: _243  and  _244
REMARK  102  A    between atoms: _244  and  _245
REMARK  103  A    between atoms: _245  and  _246
REMARK  104  A    between atoms: _246  and  _247
REMARK  105  A    between atoms: _251  and  _253
REMARK  106  A    between atoms: _253  and  _254
REMARK  107  A    between atoms: _253  and  _256
REMARK  108  A    between atoms: _256  and  _257
REMARK  109  A    between atoms: _257  and  _258
REMARK  110  A    between atoms: _260  and  _262
REMARK  111  A    between atoms: _262  and  _263
REMARK  112  A    between atoms: _262  and  _265
REMARK  113  A    between atoms: _268  and  _270
REMARK  114  A    between atoms: _270  and  _271
REMARK  115  A    between atoms: _270  and  _273
REMARK  116  A    between atoms: _273  and  _274
REMARK  117  A    between atoms: _277  and  _279
REMARK  118  A    between atoms: _279  and  _280
REMARK  119  A    between atoms: _282  and  _284
REMARK  120  A    between atoms: _284  and  _285
REMARK  121  A    between atoms: _284  and  _287
REMARK  122  A    between atoms: _287  and  _288
REMARK  123  A    between atoms: _291  and  _293
REMARK  124  A    between atoms: _293  and  _294
REMARK  125  A    between atoms: _293  and  _296
REMARK  126  A    between atoms: _296  and  _297
REMARK  127  A    between atoms: _300  and  _302
REMARK  128  A    between atoms: _302  and  _303
REMARK  129  A    between atoms: _302  and  _305
REMARK  130  A    between atoms: _305  and  _306
REMARK  131  A    between atoms: _309  and  _311
REMARK  132  A    between atoms: _311  and  _312
REMARK  133  A    between atoms: _311  and  _314
REMARK  134  A    between atoms: _314  and  _315
REMARK  135  A    between atoms: _320  and  _321
REMARK  136  A    between atoms: _323  and  _325
REMARK  137  A    between atoms: _325  and  _326
REMARK  138  A    between atoms: _325  and  _328
REMARK  139  A    between atoms: _328  and  _329
REMARK  140  A    between atoms: _332  and  _334
REMARK  141  A    between atoms: _334  and  _335
REMARK  142  A    between atoms: _334  and  _337
REMARK  143  A    between atoms: _340  and  _342
REMARK  144  A    between atoms: _342  and  _343
REMARK  145  A    between atoms: _342  and  _345
REMARK  146  A    between atoms: _345  and  _346
REMARK  147  A    between atoms: _349  and  _351
REMARK  148  A    between atoms: _351  and  _352
REMARK  149  A    between atoms: _351  and  _354
REMARK  150  A    between atoms: _354  and  _355
REMARK  151  A    between atoms: _360  and  _362
REMARK  152  A    between atoms: _362  and  _363
REMARK  153  A    between atoms: _362  and  _365
REMARK  154  A    between atoms: _365  and  _366
REMARK  155  A    between atoms: _369  and  _371
REMARK  156  A    between atoms: _371  and  _372
REMARK  157  A    between atoms: _371  and  _374
REMARK  158  A    between atoms: _374  and  _375
REMARK  159  A    between atoms: _375  and  _376
REMARK  160  A    between atoms: _378  and  _380
REMARK  161  A    between atoms: _380  and  _381
REMARK  162  A    between atoms: _383  and  _385
REMARK  163  A    between atoms: _385  and  _386
REMARK  164  A    between atoms: _389  and  _391
REMARK  165  A    between atoms: _391  and  _392
REMARK  166  A    between atoms: _391  and  _394
REMARK  167  A    between atoms: _394  and  _395
REMARK  168  A    between atoms: _398  and  _400
REMARK  169  A    between atoms: _400  and  _401
REMARK  170  A    between atoms: _400  and  _403
REMARK  171  A    between atoms: _403  and  _404
REMARK  172  A    between atoms: _407  and  _409
REMARK  173  A    between atoms: _409  and  _410
REMARK  174  A    between atoms: _409  and  _412
REMARK  175  A    between atoms: _412  and  _413
REMARK  176  A    between atoms: _418  and  _420
REMARK  177  A    between atoms: _420  and  _421
REMARK  178  A    between atoms: _420  and  _423
REMARK  179  A    between atoms: _423  and  _424
REMARK  180  A    between atoms: _429  and  _431
REMARK  181  A    between atoms: _431  and  _432
REMARK  182  A    between atoms: _431  and  _434
REMARK  183  A    between atoms: _434  and  _435
REMARK  184  A    between atoms: _438  and  _440
REMARK  185  A    between atoms: _440  and  _441
REMARK  186  A    between atoms: _440  and  _443
REMARK  187  A    between atoms: _443  and  _444
REMARK  188  A    between atoms: _447  and  _449
REMARK  189  A    between atoms: _449  and  _450
REMARK  190  A    between atoms: _449  and  _452
REMARK  191  A    between atoms: _452  and  _453
REMARK  192  A    between atoms: _459  and  _460
REMARK  193  A    between atoms: _465  and  _467
REMARK  194  A    between atoms: _467  and  _468
REMARK  195  A    between atoms: _467  and  _470
REMARK  196  A    between atoms: _470  and  _471
REMARK  197  A    between atoms: _473  and  _475
REMARK  198  A    between atoms: _475  and  _476
REMARK  199  A    between atoms: _475  and  _478
REMARK  200  A    between atoms: _478  and  _479
REMARK  201  A    between atoms: _484  and  _486
REMARK  202  A    between atoms: _486  and  _487
REMARK  203  A    between atoms: _486  and  _489
REMARK  204  A    between atoms: _489  and  _490
REMARK  205  A    between atoms: _493  and  _495
REMARK  206  A    between atoms: _495  and  _496
REMARK  207  A    between atoms: _499  and  _501
REMARK  208  A    between atoms: _501  and  _502
REMARK  209  A    between atoms: _501  and  _504
REMARK  210  A    between atoms: _507  and  _509
REMARK  211  A    between atoms: _509  and  _510
REMARK  212  A    between atoms: _509  and  _512
REMARK  213  A    between atoms: _512  and  _513
REMARK  214  A    between atoms: _518  and  _520
REMARK  215  A    between atoms: _520  and  _521
REMARK  216  A    between atoms: _520  and  _523
REMARK  217  A    between atoms: _523  and  _524
REMARK  218  A    between atoms: _524  and  _525
REMARK  219  A    between atoms: _525  and  _526
REMARK  220  A    between atoms: _526  and  _527
REMARK  221  A    between atoms: _531  and  _533
REMARK  222  A    between atoms: _533  and  _534
REMARK  223  A    between atoms: _533  and  _536
REMARK  224  A    between atoms: _536  and  _537
REMARK  225  A    between atoms: _540  and  _542
REMARK  226  A    between atoms: _542  and  _543
REMARK  227  A    between atoms: _542  and  _545
REMARK  228  A    between atoms: _545  and  _546
REMARK  229  A    between atoms: _549  and  _551
REMARK  230  A    between atoms: _551  and  _552
REMARK  231  A    between atoms: _551  and  _554
REMARK  232  A    between atoms: _554  and  _555
REMARK  233  A    between atoms: _558  and  _560
REMARK  234  A    between atoms: _560  and  _561
REMARK  235  A    between atoms: _560  and  _563
REMARK  236  A    between atoms: _563  and  _564
REMARK  237  A    between atoms: _570  and  _572
REMARK  238  A    between atoms: _572  and  _573
REMARK  239  A    between atoms: _575  and  _577
REMARK  240  A    between atoms: _577  and  _578
REMARK  241  A    between atoms: _577  and  _580
REMARK  242  A    between atoms: _580  and  _581
REMARK  243  A    between atoms: _584  and  _586
REMARK  244  A    between atoms: _586  and  _587
REMARK  245  A    between atoms: _592  and  _593
REMARK  246  A    between atoms: _592  and  _595
REMARK  247  A    between atoms: _595  and  _596
REMARK  248  A    between atoms: _596  and  _597
REMARK  249  A    between atoms: _597  and  _598
REMARK                            x       y       z     vdW  Elec       q    Type
REMARK                         _______ _______ _______ _____ _____    ______ ____
ROOT
ATOM      1  C   GLY A   3      43.085  26.078  25.516  0.00  0.00    +0.243 C 
ATOM      2  O   GLY A   3      44.136  26.647  25.162  0.00  0.00    -0.273 OA
ATOM      3  N   SER A   4      41.918  26.275  24.898  0.00  0.00    -0.295 N 
ATOM      4  H   SER A   4      41.057  25.783  25.211  0.00  0.00    +0.150 HD
ENDROOT
BRANCH   3   5
ATOM      5  CA  SER A   4      41.886  27.205  23.764  0.00  0.00    +0.178 C 
BRANCH   5   6
ATOM      6  C   SER A   4      41.520  28.617  24.242  0.00  0.00    +0.243 C 
ATOM      7  N   VAL A   5      42.564  29.395  24.547  0.00  0.00    -0.297 N 
ATOM      8  H   VAL A   5      43.523  29.055  24.333  0.00  0.00    +0.150 HD
ATOM      9  O   SER A   4      40.344  28.969  24.353  0.00  0.00    -0.273 OA
BRANCH   7  10
ATOM     10  CA  VAL A   5      42.404  30.698  25.167  0.00  0.00    +0.149 C 
BRANCH  10  11
ATOM     11  C   VAL A   5      43.015  31.793  24.278  0.00  0.00    +0.241 C 
ATOM     12  N   CYS A   6      42.252  32.848  24.027  0.00  0.00    -0.296 N 
ATOM     13  H   CYS A   6      41.251  32.825  24.308  0.00  0.00    +0.150 HD
ATOM     14  O   VAL A   5      44.135  31.661  23.822  0.00  0.00    -0.273 OA
BRANCH  12  15
ATOM     15  CA  CYS A   6      42.782  34.053  23.361  0.00  0.00    +0.160 C 
BRANCH  15  16
ATOM     16  C   CYS A   6      42.736  35.241  24.297  0.00  0.00    +0.242 C 
ATOM     17  O   CYS A   6      41.782  35.392  25.082  0.00  0.00    -0.273 OA
ATOM     18  N   ALA A   7      43.764  36.077  24.218  0.00  0.00    -0.298 N 
ATOM     19  H   ALA A   7      44.621  35.774  23.713  0.00  0.00    +0.150 HD
BRANCH  18  20
ATOM     20  CA  ALA A   7      43.731  37.399  24.813  0.00  0.00    +0.137 C 
ATOM     21  CB  ALA A   7      45.135  37.985  24.868  0.00  0.00    +0.030 C 
BRANCH  20  22
ATOM     22  C   ALA A   7      42.859  38.254  23.911  0.00  0.00    +0.227 C 
ATOM     23  O   ALA A   7      42.864  38.083  22.698  0.00  0.00    -0.286 OA
ENDBRANCH  20  22
ENDBRANCH  18  20
ENDBRANCH  15  16
BRANCH  15  24
ATOM     24  CB  CYS A   6      41.933  34.400  22.142  0.00  0.00    +0.098 C 
ATOM     25  SG  CYS A   6      42.182  33.276  20.772  0.00  0.00    -0.080 S 
ENDBRANCH  15  24
ENDBRANCH  12  15
ENDBRANCH  10  11
BRANCH  10  26
ATOM     26  CB  VAL A   5      43.017  30.738  26.584  0.00  0.00    +0.027 C 
ATOM     27  CG2 VAL A   5      42.457  29.582  27.451  0.00  0.00    +0.002 C 
ATOM     28  CG1 VAL A   5      42.725  32.086  27.258  0.00  0.00    +0.002 C 
ENDBRANCH  10  26
ENDBRANCH   7  10
ENDBRANCH   5   6
BRANCH   5  29
ATOM     29  CB  SER A   4      40.992  26.712  22.626  0.00  0.00    +0.166 C 
BRANCH  29  30
ATOM     30  OG  SER A   4      41.547  27.119  21.382  0.00  0.00    -0.380 OA
ATOM     31  H   SER A   4      40.969  26.800  20.644  0.00  0.00    +0.211 HD
ENDBRANCH  29  30
ENDBRANCH   5  29
ENDBRANCH   3   5
BRANCH   1  32
ATOM     32  CA  GLY A   3      43.095  25.123  26.702  0.00  0.00    +0.176 C 
BRANCH  32  35
ATOM     33  C   TYR A   2      43.897  26.303  28.686  0.00  0.00    +0.241 C 
ATOM     34  O   TYR A   2      42.761  26.624  29.021  0.00  0.00    -0.273 OA
ATOM     35  N   GLY A   3      44.149  25.517  27.639  0.00  0.00    -0.295 N 
ATOM     36  H   GLY A   3      45.119  25.175  27.484  0.00  0.00    +0.150 HD
BRANCH  33  37
ATOM     37  CA  TYR A   2      45.115  26.743  29.517  0.00  0.00    +0.153 C 
BRANCH  37  40
ATOM     38  C   ALA A   1      46.994  25.271  28.983  0.00  0.00    +0.238 C 
ATOM     39  O   ALA A   1      46.472  24.324  29.593  0.00  0.00    -0.274 OA
ATOM     40  N   TYR A   2      46.402  26.459  28.850  0.00  0.00    -0.297 N 
ATOM     41  H   TYR A   2      46.852  27.195  28.269  0.00  0.00    +0.150 HD
BRANCH  38  42
ATOM     42  CA  ALA A   1      48.377  25.105  28.340  0.00  0.00    +0.145 C 
ATOM     43  CB  ALA A   1      49.450  25.803  29.186  0.00  0.00    +0.028 C 
BRANCH  42  44
ATOM     44  N   ALA A   1      48.496  25.501  26.926  0.00  0.00    -0.238 NA
ATOM     45  H   ALA A   1      49.295  26.110  26.655  0.00  0.00    +0.142 HD
ENDBRANCH  42  44
ENDBRANCH  38  42
ENDBRANCH  37  40
BRANCH  37  46
ATOM     46  CB  TYR A   2      45.025  28.220  29.999  0.00  0.00    +0.055 C 
BRANCH  46  47
ATOM     47  CG  TYR A   2      46.251  28.614  30.807  0.00  0.00    -0.020 A 
ATOM     48  CD2 TYR A   2      46.430  28.154  32.124  0.00  0.00    -0.001 A 
ATOM     49  CE2 TYR A   2      47.587  28.485  32.859  0.00  0.00    +0.036 A 
ATOM     50  CZ  TYR A   2      48.579  29.276  32.268  0.00  0.00    +0.134 A 
ATOM     51  CE1 TYR A   2      48.419  29.736  30.961  0.00  0.00    +0.036 A 
ATOM     52  CD1 TYR A   2      47.265  29.401  30.237  0.00  0.00    -0.001 A 
BRANCH  50  53
ATOM     53  OH  TYR A   2      49.724  29.614  32.965  0.00  0.00    -0.506 OA
ATOM     54  HH  TYR A   2      49.688  29.215  33.870  0.00  0.00    +0.292 HD
ENDBRANCH  50  53
ENDBRANCH  46  47
ENDBRANCH  37  46
ENDBRANCH  33  37
ENDBRANCH  32  35
ENDBRANCH   1  32
TORSDOF 21
REMARK  Name = ../refined-set-2016/3d7z/3d7z_pocket.pdb
REMARK  249 active torsions:
REMARK  status: ('A' for Active; 'I' for Inactive)
REMARK    1  A    between atoms: _1  and  _3
REMARK    2  A    between atoms: _3  and  _4
REMARK    3  A    between atoms: _3  and  _6
REMARK    4  A    between atoms: _9  and  _11
REMARK    5  A    between atoms: _11  and  _12
REMARK    6  A    between atoms: _14  and  _16
REMARK    7  A    between atoms: _16  and  _17
REMARK    8  A    between atoms: _16  and  _19
REMARK    9  A    between atoms: _19  and  _20
REMARK   10  A    between atoms: _22  and  _24
REMARK   11  A    between atoms: _24  and  _25
REMARK   12  A    between atoms: _28  and  _30
REMARK   13  A    between atoms: _30  and  _31
REMARK   14  A    between atoms: _30  and  _33
REMARK   15  A    between atoms: _33  and  _34
REMARK   16  A    between atoms: _39  and  _40
REMARK   17  A    between atoms: _42  and  _44
REMARK   18  A    between atoms: _44  and  _45
REMARK   19  A    between atoms: _47  and  _49
REMARK   20  A    between atoms: _49  and  _50
REMARK   21  A    between atoms: _49  and  _52
REMARK   22  A    between atoms: _52  and  _53
REMARK   23  A    between atoms: _55  and  _57
REMARK   24  A    between atoms: _57  and  _58
REMARK   25  A    between atoms: _57  and  _60
REMARK   26  A    between atoms: _63  and  _65
REMARK   27  A    between atoms: _65  and  _66
REMARK   28  A    between atoms: _65  and  _68
REMARK   29  A    between atoms: _70  and  _72
REMARK   30  A    between atoms: _72  and  _73
REMARK   31  A    between atoms: _76  and  _78
REMARK   32  A    between atoms: _78  and  _79
REMARK   33  A    between atoms: _78  and  _81
REMARK   34  A    between atoms: _81  and  _82
REMARK   35  A    between atoms: _82  and  _83
REMARK   36  A    between atoms: _83  and  _84
REMARK   37  A    between atoms: _93  and  _95
REMARK   38  A    between atoms: _95  and  _96
REMARK   39  A    between atoms: _95  and  _98
REMARK   40  A    between atoms: _101  and  _103
REMARK   41  A    between atoms: _103  and  _104
REMARK   42  A    between atoms: _107  and  _109
REMARK   43  A    between atoms: _109  and  _110
REMARK   44  A    between atoms: _109  and  _112
REMARK   45  A    between atoms: _115  and  _117
REMARK   46  A    between atoms: _117  and  _118
REMARK   47  A    between atoms: _117  and  _120
REMARK   48  A    between atoms: _120  and  _121
REMARK   49  A    between atoms: _121  and  _122
REMARK   50  A    between atoms: _122  and  _123
REMARK   51  A    between atoms: _123  and  _124
REMARK   52  A    between atoms: _128  and  _130
REMARK   53  A    between atoms: _130  and  _131
REMARK   54  A    between atoms: _130  and  _133
REMARK   55  A    between atoms: _133  and  _134
REMARK   56  A    between atoms: _134  and  _135
REMARK   57  A    between atoms: _135  and  _136
REMARK   58  A    between atoms: _136  and  _137
REMARK   59  A    between atoms: _141  and  _143
REMARK   60  A    between atoms: _143  and  _144
REMARK   61  A    between atoms: _143  and  _146
REMARK   62  A    between atoms: _146  and  _147
REMARK   63  A    between atoms: _150  and  _152
REMARK   64  A    between atoms: _152  and  _153
REMARK   65  A    between atoms: _152  and  _155
REMARK   66  A    between atoms: _155  and  _156
REMARK   67  A    between atoms: _156  and  _157
REMARK   68  A    between atoms: _157  and  _158
REMARK   69  A    between atoms: _167  and  _169
REMARK   70  A    between atoms: _169  and  _170
REMARK   71  A    between atoms: _169  and  _172
REMARK   72  A    between atoms: _172  and  _173
REMARK   73  A    between atoms: _173  and  _174
REMARK   74  A    between atoms: _174  and  _175
REMARK   75  A    between atoms: _184  and  _186
REMARK   76  A    between atoms: _186  and  _187
REMARK   77  A    between atoms: _186  and  _189
REMARK   78  A    between atoms: _189  and  _190
REMARK   79  A    between atoms: _190  and  _191
REMARK   80  A    between atoms: _194  and  _196
REMARK   81  A    between atoms: _196  and  _197
REMARK   82  A    between atoms: _196  and  _199
REMARK   83  A    between atoms: _199  and  _200
REMARK   84  A    between atoms: _203  and  _205
REMARK   85  A    between atoms: _205  and  _206
REMARK   86  A    between atoms: _205  and  _208
REMARK   87  A    between atoms: _208  and  _209
REMARK   88  A    between atoms: _209  and  _210
REMARK   89  A    between atoms: _210  and  _211
REMARK   90  A    between atoms: _220  and  _222
REMARK   91  A    between atoms: _222  and  _223
REMARK   92  A    between atoms: _222  and  _225
REMARK   93  A    between atoms: _225  and  _226
REMARK   94  A    between atoms: _229  and  _231
REMARK   95  A    between atoms: _231  and  _232
REMARK   96  A    between atoms: _231  and  _234
REMARK   97  A    between atoms: _234  and  _235
REMARK   98  A    between atoms: _238  and  _240
REMARK   99  A    between atoms: _240  and  _241
REMARK  100  A    between atoms: _240  and  _243
REMARK  101  A    between atoms: _243  and  _244
REMARK  102  A    between atoms: _244  and  _245
REMARK  103  A    between atoms: _245  and  _246
REMARK  104  A    between atoms: _246  and  _247
REMARK  105  A    between atoms: _251  and  _253
REMARK  106  A    between atoms: _253  and  _254
REMARK  107  A    between atoms: _253  and  _256
REMARK  108  A    between atoms: _256  and  _257
REMARK  109  A    between atoms: _257  and  _258
REMARK  110  A    between atoms: _260  and  _262
REMARK  111  A    between atoms: _262  and  _263
REMARK  112  A    between atoms: _262  and  _265
REMARK  113  A    between atoms: _268  and  _270
REMARK  114  A    between atoms: _270  and  _271
REMARK  115  A    between atoms: _270  and  _273
REMARK  116  A    between atoms: _273  and  _274
REMARK  117  A    between atoms: _277  and  _279
REMARK  118  A    between atoms: _279  and  _280
REMARK  119  A    between atoms: _282  and  _284
REMARK  120  A    between atoms: _284  and  _285
REMARK  121  A    between atoms: _284  and  _287
REMARK  122  A    between atoms: _287  and  _288
REMARK  123  A    between atoms: _291  and  _293
REMARK  124  A    between atoms: _293  and  _294
REMARK  125  A    between atoms: _293  and  _296
REMARK  126  A    between atoms: _296  and  _297
REMARK  127  A    between atoms: _300  and  _302
REMARK  128  A    between atoms: _302  and  _303
REMARK  129  A    between atoms: _302  and  _305
REMARK  130  A    between atoms: _305  and  _306
REMARK  131  A    between atoms: _309  and  _311
REMARK  132  A    between atoms: _311  and  _312
REMARK  133  A    between atoms: _311  and  _314
REMARK  134  A    between atoms: _314  and  _315
REMARK  135  A    between atoms: _320  and  _321
REMARK  136  A    between atoms: _323  and  _325
REMARK  137  A    between atoms: _325  and  _326
REMARK  138  A    between atoms: _325  and  _328
REMARK  139  A    between atoms: _328  and  _329
REMARK  140  A    between atoms: _332  and  _334
REMARK  141  A    between atoms: _334  and  _335
REMARK  142  A    between atoms: _334  and  _337
REMARK  143  A    between atoms: _340  and  _342
REMARK  144  A    between atoms: _342  and  _343
REMARK  145  A    between atoms: _342  and  _345
REMARK  146  A    between atoms: _345  and  _346
REMARK  147  A    between atoms: _349  and  _351
REMARK  148  A    between atoms: _351  and  _352
REMARK  149  A    between atoms: _351  and  _354
REMARK  150  A    between atoms: _354  and  _355
REMARK  151  A    between atoms: _360  and  _362
REMARK  152  A    between atoms: _362  and  _363
REMARK  153  A    between atoms: _362  and  _365
REMARK  154  A    between atoms: _365  and  _366
REMARK  155  A    between atoms: _369  and  _371
REMARK  156  A    between atoms: _371  and  _372
REMARK  157  A    between atoms: _371  and  _374
REMARK  158  A    between atoms: _374  and  _375
REMARK  159  A    between atoms: _375  and  _376
REMARK  160  A    between atoms: _378  and  _380
REMARK  161  A    between atoms: _380  and  _381
REMARK  162  A    between atoms: _383  and  _385
REMARK  163  A    between atoms: _385  and  _386
REMARK  164  A    between atoms: _389  and  _391
REMARK  165  A    between atoms: _391  and  _392
REMARK  166  A    between atoms: _391  and  _394
REMARK  167  A    between atoms: _394  and  _395
REMARK  168  A    between atoms: _398  and  _400
REMARK  169  A    between atoms: _400  and  _401
REMARK  170  A    between atoms: _400  and  _403
REMARK  171  A    between atoms: _403  and  _404
REMARK  172  A    between atoms: _407  and  _409
REMARK  173  A    between atoms: _409  and  _410
REMARK  174  A    between atoms: _409  and  _412
REMARK  175  A    between atoms: _412  and  _413
REMARK  176  A    between atoms: _418  and  _420
REMARK  177  A    between atoms: _420  and  _421
REMARK  178  A    between atoms: _420  and  _423
REMARK  179  A    between atoms: _423  and  _424
REMARK  180  A    between atoms: _429  and  _431
REMARK  181  A    between atoms: _431  and  _432
REMARK  182  A    between atoms: _431  and  _434
REMARK  183  A    between atoms: _434  and  _435
REMARK  184  A    between atoms: _438  and  _440
REMARK  185  A    between atoms: _440  and  _441
REMARK  186  A    between atoms: _440  and  _443
REMARK  187  A    between atoms: _443  and  _444
REMARK  188  A    between atoms: _447  and  _449
REMARK  189  A    between atoms: _449  and  _450
REMARK  190  A    between atoms: _449  and  _452
REMARK  191  A    between atoms: _452  and  _453
REMARK  192  A    between atoms: _459  and  _460
REMARK  193  A    between atoms: _465  and  _467
REMARK  194  A    between atoms: _467  and  _468
REMARK  195  A    between atoms: _467  and  _470
REMARK  196  A    between atoms: _470  and  _471
REMARK  197  A    between atoms: _473  and  _475
REMARK  198  A    between atoms: _475  and  _476
REMARK  199  A    between atoms: _475  and  _478
REMARK  200  A    between atoms: _478  and  _479
REMARK  201  A    between atoms: _484  and  _486
REMARK  202  A    between atoms: _486  and  _487
REMARK  203  A    between atoms: _486  and  _489
REMARK  204  A    between atoms: _489  and  _490
REMARK  205  A    between atoms: _493  and  _495
REMARK  206  A    between atoms: _495  and  _496
REMARK  207  A    between atoms: _499  and  _501
REMARK  208  A    between atoms: _501  and  _502
REMARK  209  A    between atoms: _501  and  _504
REMARK  210  A    between atoms: _507  and  _509
REMARK  211  A    between atoms: _509  and  _510
REMARK  212  A    between atoms: _509  and  _512
REMARK  213  A    between atoms: _512  and  _513
REMARK  214  A    between atoms: _518  and  _520
REMARK  215  A    between atoms: _520  and  _521
REMARK  216  A    between atoms: _520  and  _523
REMARK  217  A    between atoms: _523  and  _524
REMARK  218  A    between atoms: _524  and  _525
REMARK  219  A    between atoms: _525  and  _526
REMARK  220  A    between atoms: _526  and  _527
REMARK  221  A    between atoms: _531  and  _533
REMARK  222  A    between atoms: _533  and  _534
REMARK  223  A    between atoms: _533  and  _536
REMARK  224  A    between atoms: _536  and  _537
REMARK  225  A    between atoms: _540  and  _542
REMARK  226  A    between atoms: _542  and  _543
REMARK  227  A    between atoms: _542  and  _545
REMARK  228  A    between atoms: _545  and  _546
REMARK  229  A    between atoms: _549  and  _551
REMARK  230  A    between atoms: _551  and  _552
REMARK  231  A    between atoms: _551  and  _554
REMARK  232  A    between atoms: _554  and  _555
REMARK  233  A    between atoms: _558  and  _560
REMARK  234  A    between atoms: _560  and  _561
REMARK  235  A    between atoms: _560  and  _563
REMARK  236  A    between atoms: _563  and  _564
REMARK  237  A    between atoms: _570  and  _572
REMARK  238  A    between atoms: _572  and  _573
REMARK  239  A    between atoms: _575  and  _577
REMARK  240  A    between atoms: _577  and  _578
REMARK  241  A    between atoms: _577  and  _580
REMARK  242  A    between atoms: _580  and  _581
REMARK  243  A    between atoms: _584  and  _586
REMARK  244  A    between atoms: _586  and  _587
REMARK  245  A    between atoms: _592  and  _593
REMARK  246  A    between atoms: _592  and  _595
REMARK  247  A    between atoms: _595  and  _596
REMARK  248  A    between atoms: _596  and  _597
REMARK  249  A    between atoms: _597  and  _598
REMARK                            x       y       z     vdW  Elec       q    Type
REMARK                         _______ _______ _______ _____ _____    ______ ____
ROOT
ATOM      1  CA  VAL A   4      38.509  34.265  26.168  0.00  0.00    +0.149 C 
ENDROOT
BRANCH   1   2
ATOM      2  C   VAL A   4      38.760  32.775  25.905  0.00  0.00    +0.241 C 
ATOM      3  N   LYS A   5      38.075  31.908  26.652  0.00  0.00    -0.297 N 
ATOM      4  H   LYS A   5      37.408  32.264  27.366  0.00  0.00    +0.150 HD
ATOM      5  O   VAL A   4      39.573  32.425  25.059  0.00  0.00    -0.273 OA
BRANCH   3   6
ATOM      6  CA  LYS A   5      38.244  30.475  26.485  0.00  0.00    +0.149 C 
BRANCH   6   7
ATOM      7  C   LYS A   5      37.079  29.904  25.672  0.00  0.00    +0.241 C 
ATOM      8  O   LYS A   5      35.916  30.039  26.049  0.00  0.00    -0.273 OA
ATOM      9  N   LYS A   6      37.403  29.261  24.557  0.00  0.00    -0.297 N 
ATOM     10  H   LYS A   6      38.395  29.228  24.247  0.00  0.00    +0.150 HD
BRANCH   9  11
ATOM     11  CA  LYS A   6      36.372  28.601  23.767  0.00  0.00    +0.149 C 
BRANCH  11  12
ATOM     12  C   LYS A   6      36.400  27.146  24.146  0.00  0.00    +0.241 C 
ATOM     13  N   LEU A   7      35.297  26.639  24.670  0.00  0.00    -0.298 N 
ATOM     14  H   LEU A   7      34.440  27.218  24.779  0.00  0.00    +0.150 HD
ATOM     15  O   LYS A   6      37.415  26.481  23.979  0.00  0.00    -0.273 OA
BRANCH  13  16
ATOM     16  CA  LEU A   7      35.318  25.263  25.084  0.00  0.00    +0.137 C 
BRANCH  16  17
ATOM     17  C   LEU A   7      35.413  24.374  23.864  0.00  0.00    +0.227 C 
ATOM     18  O   LEU A   7      34.749  24.593  22.849  0.00  0.00    -0.286 OA
ENDBRANCH  16  17
BRANCH  16  19
ATOM     19  CB  LEU A   7      34.146  24.905  26.009  0.00  0.00    +0.028 C 
BRANCH  19  20
ATOM     20  CG  LEU A   7      34.367  25.496  27.420  0.00  0.00    +0.002 C 
ATOM     21  CD2 LEU A   7      33.325  25.007  28.393  0.00  0.00    +0.000 C 
ATOM     22  CD1 LEU A   7      35.768  25.187  27.963  0.00  0.00    +0.000 C 
ENDBRANCH  19  20
ENDBRANCH  16  19
ENDBRANCH  13  16
ENDBRANCH  11  12
BRANCH  11  23
ATOM     23  CB  LYS A   6      36.651  28.746  22.267  0.00  0.00    +0.029 C 
BRANCH  23  24
ATOM     24  CG  LYS A   6      35.497  28.216  21.405  0.00  0.00    +0.000 C 
BRANCH  24  25
ATOM     25  CD  LYS A   6      35.864  28.111  19.941  0.00  0.00    -0.024 C 
BRANCH  25  26
ATOM     26  CE  LYS A   6      34.679  27.542  19.178  0.00  0.00    -0.086 C 
BRANCH  26  27
ATOM     27  NZ  LYS A   6      35.108  27.000  17.876  0.00  0.00    +0.380 N 
ATOM     28  HZ1 LYS A   6      35.804  26.243  18.029  0.00  0.00    -0.089 HD
ATOM     29  HZ2 LYS A   6      34.283  26.617  17.372  0.00  0.00    -0.089 HD
ATOM     30  HZ3 LYS A   6      35.539  27.759  17.311  0.00  0.00    -0.089 HD
ENDBRANCH  26  27
ENDBRANCH  25  26
ENDBRANCH  24  25
ENDBRANCH  23  24
ENDBRANCH  11  23
ENDBRANCH   9  11
ENDBRANCH   6   7
BRANCH   6  31
ATOM     31  CB  LYS A   5      38.324  29.774  27.842  0.00  0.00    +0.029 C 
BRANCH  31  32
ATOM     32  CG  LYS A   5      38.801  28.311  27.755  0.00  0.00    +0.000 C 
BRANCH  32  33
ATOM     33  CD  LYS A   5      38.400  27.530  29.005  0.00  0.00    -0.024 C 
BRANCH  33  34
ATOM     34  CE  LYS A   5      39.590  27.160  29.825  0.00  0.00    -0.086 C 
BRANCH  34  35
ATOM     35  NZ  LYS A   5      39.222  26.238  30.950  0.00  0.00    +0.380 N 
ATOM     36  HZ1 LYS A   5      38.530  26.707  31.569  0.00  0.00    -0.089 HD
ATOM     37  HZ2 LYS A   5      40.075  26.003  31.497  0.00  0.00    -0.089 HD
ATOM     38  HZ3 LYS A   5      38.807  25.367  30.561  0.00  0.00    -0.089 HD
ENDBRANCH  34  35
ENDBRANCH  33  34
ENDBRANCH  32  33
ENDBRANCH  31  32
ENDBRANCH   6  31
ENDBRANCH   3   6
ENDBRANCH   1   2
BRANCH   1  41
ATOM     39  C   ALA A   3      39.769  35.420  27.932  0.00  0.00    +0.241 C 
ATOM     40  O   ALA A   3      38.802  35.395  28.713  0.00  0.00    -0.273 OA
ATOM     41  N   VAL A   4      39.720  34.942  26.693  0.00  0.00    -0.297 N 
ATOM     42  H   VAL A   4      40.551  35.045  26.076  0.00  0.00    +0.150 HD
BRANCH  39  43
ATOM     43  CA  ALA A   3      41.092  36.058  28.350  0.00  0.00    +0.149 C 
ATOM     44  CB  ALA A   3      41.819  35.187  29.421  0.00  0.00    +0.031 C 
BRANCH  43  46
ATOM     45  C   VAL A   2      41.030  38.497  28.228  0.00  0.00    +0.241 C 
ATOM     46  N   ALA A   3      40.749  37.366  28.877  0.00  0.00    -0.297 N 
ATOM     47  H   ALA A   3      40.266  37.424  29.796  0.00  0.00    +0.150 HD
ATOM     48  O   VAL A   2      41.751  38.567  27.204  0.00  0.00    -0.273 OA
BRANCH  45  49
ATOM     49  CA  VAL A   2      40.419  39.745  28.848  0.00  0.00    +0.148 C 
BRANCH  49  52
ATOM     50  C   ARG A   1      41.661  41.761  29.337  0.00  0.00    +0.238 C 
ATOM     51  O   ARG A   1      41.633  41.552  30.545  0.00  0.00    -0.274 OA
ATOM     52  N   VAL A   2      41.140  40.931  28.443  0.00  0.00    -0.297 N 
ATOM     53  H   VAL A   2      41.252  41.138  27.430  0.00  0.00    +0.150 HD
BRANCH  50  54
ATOM     54  CA  ARG A   1      42.265  43.019  28.773  0.00  0.00    +0.145 C 
BRANCH  54  55
ATOM     55  N   ARG A   1      41.620  44.151  29.425  0.00  0.00    -0.238 NA
ATOM     56  H   ARG A   1      42.149  44.672  30.153  0.00  0.00    +0.142 HD
ENDBRANCH  54  55
BRANCH  54  57
ATOM     57  CB  ARG A   1      43.786  43.003  29.004  0.00  0.00    +0.030 C 
BRANCH  57  58
ATOM     58  CG  ARG A   1      44.504  44.152  28.306  0.00  0.00    +0.045 C 
BRANCH  58  59
ATOM     59  CD  ARG A   1      46.008  44.046  28.495  0.00  0.00    +0.174 C 
BRANCH  59  60
ATOM     60  NE  ARG A   1      46.600  45.332  28.874  0.00  0.00    -0.265 N 
ATOM     61  CZ  ARG A   1      46.903  45.689  30.127  0.00  0.00    +0.342 C 
ATOM     62  NH2 ARG A   1      46.675  44.862  31.149  0.00  0.00    -0.292 N 
ATOM     63 HH21 ARG A   1      46.916  45.154  32.118  0.00  0.00    +0.255 HD
ATOM     64 HH22 ARG A   1      46.256  43.926  30.977  0.00  0.00    +0.255 HD
ATOM     65  NH1 ARG A   1      47.444  46.881  30.360  0.00  0.00    -0.292 N 
ATOM     66 HH11 ARG A   1      47.681  47.163  31.332  0.00  0.00    +0.255 HD
ATOM     67 HH12 ARG A   1      47.630  47.531  29.570  0.00  0.00    +0.255 HD
ATOM     68  HE  ARG A   1      46.798  46.015  28.115  0.00  0.00    +0.259 HD
ENDBRANCH  59  60
ENDBRANCH  58  59
ENDBRANCH  57  58
ENDBRANCH  54  57
ENDBRANCH  50  54
ENDBRANCH  49  52
BRANCH  49  69
ATOM     69  CB  VAL A   2      38.872  39.839  28.563  0.00  0.00    +0.027 C 
ATOM     70  CG2 VAL A   2      38.272  41.027  29.287  0.00  0.00    +0.002 C 
ATOM     71  CG1 VAL A   2      38.561  39.901  27.053  0.00  0.00    +0.002 C 
ENDBRANCH  49  69
ENDBRANCH  45  49
ENDBRANCH  43  46
ENDBRANCH  39  43
ENDBRANCH   1  41
BRANCH   1  72
ATOM     72  CB  VAL A   4      37.960  34.966  24.900  0.00  0.00    +0.027 C 
ATOM     73  CG2 VAL A   4      37.788  36.455  25.171  0.00  0.00    +0.002 C 
ATOM     74  CG1 VAL A   4      36.607  34.358  24.481  0.00  0.00    +0.002 C 
ENDBRANCH   1  72
TORSDOF 32
REMARK  Name = ../refined-set-2016/3d7z/3d7z_pocket.pdb
REMARK  249 active torsions:
REMARK  status: ('A' for Active; 'I' for Inactive)
REMARK    1  A    between atoms: _1  and  _3
REMARK    2  A    between atoms: _3  and  _4
REMARK    3  A    between atoms: _3  and  _6
REMARK    4  A    between atoms: _9  and  _11
REMARK    5  A    between atoms: _11  and  _12
REMARK    6  A    between atoms: _14  and  _16
REMARK    7  A    between atoms: _16  and  _17
REMARK    8  A    between atoms: _16  and  _19
REMARK    9  A    between atoms: _19  and  _20
REMARK   10  A    between atoms: _22  and  _24
REMARK   11  A    between atoms: _24  and  _25
REMARK   12  A    between atoms: _28  and  _30
REMARK   13  A    between atoms: _30  and  _31
REMARK   14  A    between atoms: _30  and  _33
REMARK   15  A    between atoms: _33  and  _34
REMARK   16  A    between atoms: _39  and  _40
REMARK   17  A    between atoms: _42  and  _44
REMARK   18  A    between atoms: _44  and  _45
REMARK   19  A    between atoms: _47  and  _49
REMARK   20  A    between atoms: _49  and  _50
REMARK   21  A    between atoms: _49  and  _52
REMARK   22  A    between atoms: _52  and  _53
REMARK   23  A    between atoms: _55  and  _57
REMARK   24  A    between atoms: _57  and  _58
REMARK   25  A    between atoms: _57  and  _60
REMARK   26  A    between atoms: _63  and  _65
REMARK   27  A    between atoms: _65  and  _66
REMARK   28  A    between atoms: _65  and  _68
REMARK   29  A    between atoms: _70  and  _72
REMARK   30  A    between atoms: _72  and  _73
REMARK   31  A    between atoms: _76  and  _78
REMARK   32  A    between atoms: _78  and  _79
REMARK   33  A    between atoms: _78  and  _81
REMARK   34  A    between atoms: _81  and  _82
REMARK   35  A    between atoms: _82  and  _83
REMARK   36  A    between atoms: _83  and  _84
REMARK   37  A    between atoms: _93  and  _95
REMARK   38  A    between atoms: _95  and  _96
REMARK   39  A    between atoms: _95  and  _98
REMARK   40  A    between atoms: _101  and  _103
REMARK   41  A    between atoms: _103  and  _104
REMARK   42  A    between atoms: _107  and  _109
REMARK   43  A    between atoms: _109  and  _110
REMARK   44  A    between atoms: _109  and  _112
REMARK   45  A    between atoms: _115  and  _117
REMARK   46  A    between atoms: _117  and  _118
REMARK   47  A    between atoms: _117  and  _120
REMARK   48  A    between atoms: _120  and  _121
REMARK   49  A    between atoms: _121  and  _122
REMARK   50  A    between atoms: _122  and  _123
REMARK   51  A    between atoms: _123  and  _124
REMARK   52  A    between atoms: _128  and  _130
REMARK   53  A    between atoms: _130  and  _131
REMARK   54  A    between atoms: _130  and  _133
REMARK   55  A    between atoms: _133  and  _134
REMARK   56  A    between atoms: _134  and  _135
REMARK   57  A    between atoms: _135  and  _136
REMARK   58  A    between atoms: _136  and  _137
REMARK   59  A    between atoms: _141  and  _143
REMARK   60  A    between atoms: _143  and  _144
REMARK   61  A    between atoms: _143  and  _146
REMARK   62  A    between atoms: _146  and  _147
REMARK   63  A    between atoms: _150  and  _152
REMARK   64  A    between atoms: _152  and  _153
REMARK   65  A    between atoms: _152  and  _155
REMARK   66  A    between atoms: _155  and  _156
REMARK   67  A    between atoms: _156  and  _157
REMARK   68  A    between atoms: _157  and  _158
REMARK   69  A    between atoms: _167  and  _169
REMARK   70  A    between atoms: _169  and  _170
REMARK   71  A    between atoms: _169  and  _172
REMARK   72  A    between atoms: _172  and  _173
REMARK   73  A    between atoms: _173  and  _174
REMARK   74  A    between atoms: _174  and  _175
REMARK   75  A    between atoms: _184  and  _186
REMARK   76  A    between atoms: _186  and  _187
REMARK   77  A    between atoms: _186  and  _189
REMARK   78  A    between atoms: _189  and  _190
REMARK   79  A    between atoms: _190  and  _191
REMARK   80  A    between atoms: _194  and  _196
REMARK   81  A    between atoms: _196  and  _197
REMARK   82  A    between atoms: _196  and  _199
REMARK   83  A    between atoms: _199  and  _200
REMARK   84  A    between atoms: _203  and  _205
REMARK   85  A    between atoms: _205  and  _206
REMARK   86  A    between atoms: _205  and  _208
REMARK   87  A    between atoms: _208  and  _209
REMARK   88  A    between atoms: _209  and  _210
REMARK   89  A    between atoms: _210  and  _211
REMARK   90  A    between atoms: _220  and  _222
REMARK   91  A    between atoms: _222  and  _223
REMARK   92  A    between atoms: _222  and  _225
REMARK   93  A    between atoms: _225  and  _226
REMARK   94  A    between atoms: _229  and  _231
REMARK   95  A    between atoms: _231  and  _232
REMARK   96  A    between atoms: _231  and  _234
REMARK   97  A    between atoms: _234  and  _235
REMARK   98  A    between atoms: _238  and  _240
REMARK   99  A    between atoms: _240  and  _241
REMARK  100  A    between atoms: _240  and  _243
REMARK  101  A    between atoms: _243  and  _244
REMARK  102  A    between atoms: _244  and  _245
REMARK  103  A    between atoms: _245  and  _246
REMARK  104  A    between atoms: _246  and  _247
REMARK  105  A    between atoms: _251  and  _253
REMARK  106  A    between atoms: _253  and  _254
REMARK  107  A    between atoms: _253  and  _256
REMARK  108  A    between atoms: _256  and  _257
REMARK  109  A    between atoms: _257  and  _258
REMARK  110  A    between atoms: _260  and  _262
REMARK  111  A    between atoms: _262  and  _263
REMARK  112  A    between atoms: _262  and  _265
REMARK  113  A    between atoms: _268  and  _270
REMARK  114  A    between atoms: _270  and  _271
REMARK  115  A    between atoms: _270  and  _273
REMARK  116  A    between atoms: _273  and  _274
REMARK  117  A    between atoms: _277  and  _279
REMARK  118  A    between atoms: _279  and  _280
REMARK  119  A    between atoms: _282  and  _284
REMARK  120  A    between atoms: _284  and  _285
REMARK  121  A    between atoms: _284  and  _287
REMARK  122  A    between atoms: _287  and  _288
REMARK  123  A    between atoms: _291  and  _293
REMARK  124  A    between atoms: _293  and  _294
REMARK  125  A    between atoms: _293  and  _296
REMARK  126  A    between atoms: _296  and  _297
REMARK  127  A    between atoms: _300  and  _302
REMARK  128  A    between atoms: _302  and  _303
REMARK  129  A    between atoms: _302  and  _305
REMARK  130  A    between atoms: _305  and  _306
REMARK  131  A    between atoms: _309  and  _311
REMARK  132  A    between atoms: _311  and  _312
REMARK  133  A    between atoms: _311  and  _314
REMARK  134  A    between atoms: _314  and  _315
REMARK  135  A    between atoms: _320  and  _321
REMARK  136  A    between atoms: _323  and  _325
REMARK  137  A    between atoms: _325  and  _326
REMARK  138  A    between atoms: _325  and  _328
REMARK  139  A    between atoms: _328  and  _329
REMARK  140  A    between atoms: _332  and  _334
REMARK  141  A    between atoms: _334  and  _335
REMARK  142  A    between atoms: _334  and  _337
REMARK  143  A    between atoms: _340  and  _342
REMARK  144  A    between atoms: _342  and  _343
REMARK  145  A    between atoms: _342  and  _345
REMARK  146  A    between atoms: _345  and  _346
REMARK  147  A    between atoms: _349  and  _351
REMARK  148  A    between atoms: _351  and  _352
REMARK  149  A    between atoms: _351  and  _354
REMARK  150  A    between atoms: _354  and  _355
REMARK  151  A    between atoms: _360  and  _362
REMARK  152  A    between atoms: _362  and  _363
REMARK  153  A    between atoms: _362  and  _365
REMARK  154  A    between atoms: _365  and  _366
REMARK  155  A    between atoms: _369  and  _371
REMARK  156  A    between atoms: _371  and  _372
REMARK  157  A    between atoms: _371  and  _374
REMARK  158  A    between atoms: _374  and  _375
REMARK  159  A    between atoms: _375  and  _376
REMARK  160  A    between atoms: _378  and  _380
REMARK  161  A    between atoms: _380  and  _381
REMARK  162  A    between atoms: _383  and  _385
REMARK  163  A    between atoms: _385  and  _386
REMARK  164  A    between atoms: _389  and  _391
REMARK  165  A    between atoms: _391  and  _392
REMARK  166  A    between atoms: _391  and  _394
REMARK  167  A    between atoms: _394  and  _395
REMARK  168  A    between atoms: _398  and  _400
REMARK  169  A    between atoms: _400  and  _401
REMARK  170  A    between atoms: _400  and  _403
REMARK  171  A    between atoms: _403  and  _404
REMARK  172  A    between atoms: _407  and  _409
REMARK  173  A    between atoms: _409  and  _410
REMARK  174  A    between atoms: _409  and  _412
REMARK  175  A    between atoms: _412  and  _413
REMARK  176  A    between atoms: _418  and  _420
REMARK  177  A    between atoms: _420  and  _421
REMARK  178  A    between atoms: _420  and  _423
REMARK  179  A    between atoms: _423  and  _424
REMARK  180  A    between atoms: _429  and  _431
REMARK  181  A    between atoms: _431  and  _432
REMARK  182  A    between atoms: _431  and  _434
REMARK  183  A    between atoms: _434  and  _435
REMARK  184  A    between atoms: _438  and  _440
REMARK  185  A    between atoms: _440  and  _441
REMARK  186  A    between atoms: _440  and  _443
REMARK  187  A    between atoms: _443  and  _444
REMARK  188  A    between atoms: _447  and  _449
REMARK  189  A    between atoms: _449  and  _450
REMARK  190  A    between atoms: _449  and  _452
REMARK  191  A    between atoms: _452  and  _453
REMARK  192  A    between atoms: _459  and  _460
REMARK  193  A    between atoms: _465  and  _467
REMARK  194  A    between atoms: _467  and  _468
REMARK  195  A    between atoms: _467  and  _470
REMARK  196  A    between atoms: _470  and  _471
REMARK  197  A    between atoms: _473  and  _475
REMARK  198  A    between atoms: _475  and  _476
REMARK  199  A    between atoms: _475  and  _478
REMARK  200  A    between atoms: _478  and  _479
REMARK  201  A    between atoms: _484  and  _486
REMARK  202  A    between atoms: _486  and  _487
REMARK  203  A    between atoms: _486  and  _489
REMARK  204  A    between atoms: _489  and  _490
REMARK  205  A    between atoms: _493  and  _495
REMARK  206  A    between atoms: _495  and  _496
REMARK  207  A    between atoms: _499  and  _501
REMARK  208  A    between atoms: _501  and  _502
REMARK  209  A    between atoms: _501  and  _504
REMARK  210  A    between atoms: _507  and  _509
REMARK  211  A    between atoms: _509  and  _510
REMARK  212  A    between atoms: _509  and  _512
REMARK  213  A    between atoms: _512  and  _513
REMARK  214  A    between atoms: _518  and  _520
REMARK  215  A    between atoms: _520  and  _521
REMARK  216  A    between atoms: _520  and  _523
REMARK  217  A    between atoms: _523  and  _524
REMARK  218  A    between atoms: _524  and  _525
REMARK  219  A    between atoms: _525  and  _526
REMARK  220  A    between atoms: _526  and  _527
REMARK  221  A    between atoms: _531  and  _533
REMARK  222  A    between atoms: _533  and  _534
REMARK  223  A    between atoms: _533  and  _536
REMARK  224  A    between atoms: _536  and  _537
REMARK  225  A    between atoms: _540  and  _542
REMARK  226  A    between atoms: _542  and  _543
REMARK  227  A    between atoms: _542  and  _545
REMARK  228  A    between atoms: _545  and  _546
REMARK  229  A    between atoms: _549  and  _551
REMARK  230  A    between atoms: _551  and  _552
REMARK  231  A    between atoms: _551  and  _554
REMARK  232  A    between atoms: _554  and  _555
REMARK  233  A    between atoms: _558  and  _560
REMARK  234  A    between atoms: _560  and  _561
REMARK  235  A    between atoms: _560  and  _563
REMARK  236  A    between atoms: _563  and  _564
REMARK  237  A    between atoms: _570  and  _572
REMARK  238  A    between atoms: _572  and  _573
REMARK  239  A    between atoms: _575  and  _577
REMARK  240  A    between atoms: _577  and  _578
REMARK  241  A    between atoms: _577  and  _580
REMARK  242  A    between atoms: _580  and  _581
REMARK  243  A    between atoms: _584  and  _586
REMARK  244  A    between atoms: _586  and  _587
REMARK  245  A    between atoms: _592  and  _593
REMARK  246  A    between atoms: _592  and  _595
REMARK  247  A    between atoms: _595  and  _596
REMARK  248  A    between atoms: _596  and  _597
REMARK  249  A    between atoms: _597  and  _598
REMARK                            x       y       z     vdW  Elec       q    Type
REMARK                         _______ _______ _______ _____ _____    ______ ____
ROOT
ATOM      1  NE  ARG A   1      36.306  17.109  30.239  0.00  0.00    -0.265 N 
ATOM      2  HE  ARG A   1      35.899  16.174  30.443  0.00  0.00    +0.259 HD
ATOM      3  CZ  ARG A   1      37.208  17.191  29.257  0.00  0.00    +0.342 C 
ATOM      4  NH2 ARG A   1      37.774  18.355  28.932  0.00  0.00    -0.292 N 
ATOM      5 HH21 ARG A   1      37.515  19.221  29.447  0.00  0.00    +0.255 HD
ATOM      6 HH22 ARG A   1      38.474  18.396  28.164  0.00  0.00    +0.255 HD
ATOM      7  NH1 ARG A   1      37.560  16.096  28.601  0.00  0.00    -0.292 N 
ATOM      8 HH11 ARG A   1      37.135  15.180  28.852  0.00  0.00    +0.255 HD
ATOM      9 HH12 ARG A   1      38.262  16.151  27.835  0.00  0.00    +0.255 HD
ENDROOT
BRANCH   1  10
ATOM     10  CD  ARG A   1      35.848  18.243  31.051  0.00  0.00    +0.174 C 
BRANCH  10  11
ATOM     11  CG  ARG A   1      34.323  18.385  31.127  0.00  0.00    +0.045 C 
BRANCH  11  12
ATOM     12  CB  ARG A   1      33.941  18.477  32.572  0.00  0.00    +0.029 C 
BRANCH  12  13
ATOM     13  CA  ARG A   1      32.557  19.092  32.897  0.00  0.00    +0.133 C 
BRANCH  13  14
ATOM     14  N   ARG A   1      31.443  18.229  32.500  0.00  0.00    -0.239 NA
ATOM     15  H   ARG A   1      31.559  17.517  31.751  0.00  0.00    +0.142 HD
ENDBRANCH  13  14
BRANCH  13  16
ATOM     16  C   ARG A   1      32.412  20.523  32.411  0.00  0.00    +0.224 C 
ATOM     17  O   ARG A   1      32.927  21.452  33.050  0.00  0.00    -0.287 OA
ENDBRANCH  13  16
ENDBRANCH  12  13
ENDBRANCH  11  12
ENDBRANCH  10  11
ENDBRANCH   1  10
TORSDOF 6
REMARK  Name = ../refined-set-2016/3d7z/3d7z_pocket.pdb
REMARK  249 active torsions:
REMARK  status: ('A' for Active; 'I' for Inactive)
REMARK    1  A    between atoms: _1  and  _3
REMARK    2  A    between atoms: _3  and  _4
REMARK    3  A    between atoms: _3  and  _6
REMARK    4  A    between atoms: _9  and  _11
REMARK    5  A    between atoms: _11  and  _12
REMARK    6  A    between atoms: _14  and  _16
REMARK    7  A    between atoms: _16  and  _17
REMARK    8  A    between atoms: _16  and  _19
REMARK    9  A    between atoms: _19  and  _20
REMARK   10  A    between atoms: _22  and  _24
REMARK   11  A    between atoms: _24  and  _25
REMARK   12  A    between atoms: _28  and  _30
REMARK   13  A    between atoms: _30  and  _31
REMARK   14  A    between atoms: _30  and  _33
REMARK   15  A    between atoms: _33  and  _34
REMARK   16  A    between atoms: _39  and  _40
REMARK   17  A    between atoms: _42  and  _44
REMARK   18  A    between atoms: _44  and  _45
REMARK   19  A    between atoms: _47  and  _49
REMARK   20  A    between atoms: _49  and  _50
REMARK   21  A    between atoms: _49  and  _52
REMARK   22  A    between atoms: _52  and  _53
REMARK   23  A    between atoms: _55  and  _57
REMARK   24  A    between atoms: _57  and  _58
REMARK   25  A    between atoms: _57  and  _60
REMARK   26  A    between atoms: _63  and  _65
REMARK   27  A    between atoms: _65  and  _66
REMARK   28  A    between atoms: _65  and  _68
REMARK   29  A    between atoms: _70  and  _72
REMARK   30  A    between atoms: _72  and  _73
REMARK   31  A    between atoms: _76  and  _78
REMARK   32  A    between atoms: _78  and  _79
REMARK   33  A    between atoms: _78  and  _81
REMARK   34  A    between atoms: _81  and  _82
REMARK   35  A    between atoms: _82  and  _83
REMARK   36  A    between atoms: _83  and  _84
REMARK   37  A    between atoms: _93  and  _95
REMARK   38  A    between atoms: _95  and  _96
REMARK   39  A    between atoms: _95  and  _98
REMARK   40  A    between atoms: _101  and  _103
REMARK   41  A    between atoms: _103  and  _104
REMARK   42  A    between atoms: _107  and  _109
REMARK   43  A    between atoms: _109  and  _110
REMARK   44  A    between atoms: _109  and  _112
REMARK   45  A    between atoms: _115  and  _117
REMARK   46  A    between atoms: _117  and  _118
REMARK   47  A    between atoms: _117  and  _120
REMARK   48  A    between atoms: _120  and  _121
REMARK   49  A    between atoms: _121  and  _122
REMARK   50  A    between atoms: _122  and  _123
REMARK   51  A    between atoms: _123  and  _124
REMARK   52  A    between atoms: _128  and  _130
REMARK   53  A    between atoms: _130  and  _131
REMARK   54  A    between atoms: _130  and  _133
REMARK   55  A    between atoms: _133  and  _134
REMARK   56  A    between atoms: _134  and  _135
REMARK   57  A    between atoms: _135  and  _136
REMARK   58  A    between atoms: _136  and  _137
REMARK   59  A    between atoms: _141  and  _143
REMARK   60  A    between atoms: _143  and  _144
REMARK   61  A    between atoms: _143  and  _146
REMARK   62  A    between atoms: _146  and  _147
REMARK   63  A    between atoms: _150  and  _152
REMARK   64  A    between atoms: _152  and  _153
REMARK   65  A    between atoms: _152  and  _155
REMARK   66  A    between atoms: _155  and  _156
REMARK   67  A    between atoms: _156  and  _157
REMARK   68  A    between atoms: _157  and  _158
REMARK   69  A    between atoms: _167  and  _169
REMARK   70  A    between atoms: _169  and  _170
REMARK   71  A    between atoms: _169  and  _172
REMARK   72  A    between atoms: _172  and  _173
REMARK   73  A    between atoms: _173  and  _174
REMARK   74  A    between atoms: _174  and  _175
REMARK   75  A    between atoms: _184  and  _186
REMARK   76  A    between atoms: _186  and  _187
REMARK   77  A    between atoms: _186  and  _189
REMARK   78  A    between atoms: _189  and  _190
REMARK   79  A    between atoms: _190  and  _191
REMARK   80  A    between atoms: _194  and  _196
REMARK   81  A    between atoms: _196  and  _197
REMARK   82  A    between atoms: _196  and  _199
REMARK   83  A    between atoms: _199  and  _200
REMARK   84  A    between atoms: _203  and  _205
REMARK   85  A    between atoms: _205  and  _206
REMARK   86  A    between atoms: _205  and  _208
REMARK   87  A    between atoms: _208  and  _209
REMARK   88  A    between atoms: _209  and  _210
REMARK   89  A    between atoms: _210  and  _211
REMARK   90  A    between atoms: _220  and  _222
REMARK   91  A    between atoms: _222  and  _223
REMARK   92  A    between atoms: _222  and  _225
REMARK   93  A    between atoms: _225  and  _226
REMARK   94  A    between atoms: _229  and  _231
REMARK   95  A    between atoms: _231  and  _232
REMARK   96  A    between atoms: _231  and  _234
REMARK   97  A    between atoms: _234  and  _235
REMARK   98  A    between atoms: _238  and  _240
REMARK   99  A    between atoms: _240  and  _241
REMARK  100  A    between atoms: _240  and  _243
REMARK  101  A    between atoms: _243  and  _244
REMARK  102  A    between atoms: _244  and  _245
REMARK  103  A    between atoms: _245  and  _246
REMARK  104  A    between atoms: _246  and  _247
REMARK  105  A    between atoms: _251  and  _253
REMARK  106  A    between atoms: _253  and  _254
REMARK  107  A    between atoms: _253  and  _256
REMARK  108  A    between atoms: _256  and  _257
REMARK  109  A    between atoms: _257  and  _258
REMARK  110  A    between atoms: _260  and  _262
REMARK  111  A    between atoms: _262  and  _263
REMARK  112  A    between atoms: _262  and  _265
REMARK  113  A    between atoms: _268  and  _270
REMARK  114  A    between atoms: _270  and  _271
REMARK  115  A    between atoms: _270  and  _273
REMARK  116  A    between atoms: _273  and  _274
REMARK  117  A    between atoms: _277  and  _279
REMARK  118  A    between atoms: _279  and  _280
REMARK  119  A    between atoms: _282  and  _284
REMARK  120  A    between atoms: _284  and  _285
REMARK  121  A    between atoms: _284  and  _287
REMARK  122  A    between atoms: _287  and  _288
REMARK  123  A    between atoms: _291  and  _293
REMARK  124  A    between atoms: _293  and  _294
REMARK  125  A    between atoms: _293  and  _296
REMARK  126  A    between atoms: _296  and  _297
REMARK  127  A    between atoms: _300  and  _302
REMARK  128  A    between atoms: _302  and  _303
REMARK  129  A    between atoms: _302  and  _305
REMARK  130  A    between atoms: _305  and  _306
REMARK  131  A    between atoms: _309  and  _311
REMARK  132  A    between atoms: _311  and  _312
REMARK  133  A    between atoms: _311  and  _314
REMARK  134  A    between atoms: _314  and  _315
REMARK  135  A    between atoms: _320  and  _321
REMARK  136  A    between atoms: _323  and  _325
REMARK  137  A    between atoms: _325  and  _326
REMARK  138  A    between atoms: _325  and  _328
REMARK  139  A    between atoms: _328  and  _329
REMARK  140  A    between atoms: _332  and  _334
REMARK  141  A    between atoms: _334  and  _335
REMARK  142  A    between atoms: _334  and  _337
REMARK  143  A    between atoms: _340  and  _342
REMARK  144  A    between atoms: _342  and  _343
REMARK  145  A    between atoms: _342  and  _345
REMARK  146  A    between atoms: _345  and  _346
REMARK  147  A    between atoms: _349  and  _351
REMARK  148  A    between atoms: _351  and  _352
REMARK  149  A    between atoms: _351  and  _354
REMARK  150  A    between atoms: _354  and  _355
REMARK  151  A    between atoms: _360  and  _362
REMARK  152  A    between atoms: _362  and  _363
REMARK  153  A    between atoms: _362  and  _365
REMARK  154  A    between atoms: _365  and  _366
REMARK  155  A    between atoms: _369  and  _371
REMARK  156  A    between atoms: _371  and  _372
REMARK  157  A    between atoms: _371  and  _374
REMARK  158  A    between atoms: _374  and  _375
REMARK  159  A    between atoms: _375  and  _376
REMARK  160  A    between atoms: _378  and  _380
REMARK  161  A    between atoms: _380  and  _381
REMARK  162  A    between atoms: _383  and  _385
REMARK  163  A    between atoms: _385  and  _386
REMARK  164  A    between atoms: _389  and  _391
REMARK  165  A    between atoms: _391  and  _392
REMARK  166  A    between atoms: _391  and  _394
REMARK  167  A    between atoms: _394  and  _395
REMARK  168  A    between atoms: _398  and  _400
REMARK  169  A    between atoms: _400  and  _401
REMARK  170  A    between atoms: _400  and  _403
REMARK  171  A    between atoms: _403  and  _404
REMARK  172  A    between atoms: _407  and  _409
REMARK  173  A    between atoms: _409  and  _410
REMARK  174  A    between atoms: _409  and  _412
REMARK  175  A    between atoms: _412  and  _413
REMARK  176  A    between atoms: _418  and  _420
REMARK  177  A    between atoms: _420  and  _421
REMARK  178  A    between atoms: _420  and  _423
REMARK  179  A    between atoms: _423  and  _424
REMARK  180  A    between atoms: _429  and  _431
REMARK  181  A    between atoms: _431  and  _432
REMARK  182  A    between atoms: _431  and  _434
REMARK  183  A    between atoms: _434  and  _435
REMARK  184  A    between atoms: _438  and  _440
REMARK  185  A    between atoms: _440  and  _441
REMARK  186  A    between atoms: _440  and  _443
REMARK  187  A    between atoms: _443  and  _444
REMARK  188  A    between atoms: _447  and  _449
REMARK  189  A    between atoms: _449  and  _450
REMARK  190  A    between atoms: _449  and  _452
REMARK  191  A    between atoms: _452  and  _453
REMARK  192  A    between atoms: _459  and  _460
REMARK  193  A    between atoms: _465  and  _467
REMARK  194  A    between atoms: _467  and  _468
REMARK  195  A    between atoms: _467  and  _470
REMARK  196  A    between atoms: _470  and  _471
REMARK  197  A    between atoms: _473  and  _475
REMARK  198  A    between atoms: _475  and  _476
REMARK  199  A    between atoms: _475  and  _478
REMARK  200  A    between atoms: _478  and  _479
REMARK  201  A    between atoms: _484  and  _486
REMARK  202  A    between atoms: _486  and  _487
REMARK  203  A    between atoms: _486  and  _489
REMARK  204  A    between atoms: _489  and  _490
REMARK  205  A    between atoms: _493  and  _495
REMARK  206  A    between atoms: _495  and  _496
REMARK  207  A    between atoms: _499  and  _501
REMARK  208  A    between atoms: _501  and  _502
REMARK  209  A    between atoms: _501  and  _504
REMARK  210  A    between atoms: _507  and  _509
REMARK  211  A    between atoms: _509  and  _510
REMARK  212  A    between atoms: _509  and  _512
REMARK  213  A    between atoms: _512  and  _513
REMARK  214  A    between atoms: _518  and  _520
REMARK  215  A    between atoms: _520  and  _521
REMARK  216  A    between atoms: _520  and  _523
REMARK  217  A    between atoms: _523  and  _524
REMARK  218  A    between atoms: _524  and  _525
REMARK  219  A    between atoms: _525  and  _526
REMARK  220  A    between atoms: _526  and  _527
REMARK  221  A    between atoms: _531  and  _533
REMARK  222  A    between atoms: _533  and  _534
REMARK  223  A    between atoms: _533  and  _536
REMARK  224  A    between atoms: _536  and  _537
REMARK  225  A    between atoms: _540  and  _542
REMARK  226  A    between atoms: _542  and  _543
REMARK  227  A    between atoms: _542  and  _545
REMARK  228  A    between atoms: _545  and  _546
REMARK  229  A    between atoms: _549  and  _551
REMARK  230  A    between atoms: _551  and  _552
REMARK  231  A    between atoms: _551  and  _554
REMARK  232  A    between atoms: _554  and  _555
REMARK  233  A    between atoms: _558  and  _560
REMARK  234  A    between atoms: _560  and  _561
REMARK  235  A    between atoms: _560  and  _563
REMARK  236  A    between atoms: _563  and  _564
REMARK  237  A    between atoms: _570  and  _572
REMARK  238  A    between atoms: _572  and  _573
REMARK  239  A    between atoms: _575  and  _577
REMARK  240  A    between atoms: _577  and  _578
REMARK  241  A    between atoms: _577  and  _580
REMARK  242  A    between atoms: _580  and  _581
REMARK  243  A    between atoms: _584  and  _586
REMARK  244  A    between atoms: _586  and  _587
REMARK  245  A    between atoms: _592  and  _593
REMARK  246  A    between atoms: _592  and  _595
REMARK  247  A    between atoms: _595  and  _596
REMARK  248  A    between atoms: _596  and  _597
REMARK  249  A    between atoms: _597  and  _598
REMARK                            x       y       z     vdW  Elec       q    Type
REMARK                         _______ _______ _______ _____ _____    ______ ____
ROOT
ATOM      1  CA  ARG A   4      28.995  26.607  37.596  0.00  0.00    +0.149 C 
ENDROOT
BRANCH   1   3
ATOM      2  C   LEU A   3      29.942  27.511  35.552  0.00  0.00    +0.241 C 
ATOM      3  N   ARG A   4      29.450  26.469  36.219  0.00  0.00    -0.297 N 
ATOM      4  H   ARG A   4      29.390  25.543  35.750  0.00  0.00    +0.150 HD
ATOM      5  O   LEU A   3      29.977  28.655  36.035  0.00  0.00    -0.273 OA
BRANCH   2   6
ATOM      6  CA  LEU A   3      30.515  27.223  34.144  0.00  0.00    +0.149 C 
BRANCH   6   9
ATOM      7  C   GLU A   2      32.511  26.026  34.860  0.00  0.00    +0.241 C 
ATOM      8  O   GLU A   2      32.874  26.981  35.543  0.00  0.00    -0.273 OA
ATOM      9  N   LEU A   3      31.388  26.049  34.136  0.00  0.00    -0.297 N 
ATOM     10  H   LEU A   3      31.131  25.222  33.560  0.00  0.00    +0.150 HD
BRANCH   7  11
ATOM     11  CA  GLU A   2      33.352  24.747  34.809  0.00  0.00    +0.149 C 
BRANCH  11  14
ATOM     12  C   ARG A   1      31.765  23.374  36.050  0.00  0.00    +0.238 C 
ATOM     13  O   ARG A   1      31.711  24.197  36.985  0.00  0.00    -0.274 OA
ATOM     14  N   GLU A   2      32.522  23.559  34.968  0.00  0.00    -0.297 N 
ATOM     15  H   GLU A   2      32.520  22.838  34.219  0.00  0.00    +0.150 HD
BRANCH  12  16
ATOM     16  CA  ARG A   1      30.926  22.093  36.086  0.00  0.00    +0.145 C 
BRANCH  16  17
ATOM     17  N   ARG A   1      30.076  21.882  34.902  0.00  0.00    -0.238 NA
ATOM     18  H   ARG A   1      30.151  20.989  34.375  0.00  0.00    +0.142 HD
ENDBRANCH  16  17
BRANCH  16  19
ATOM     19  CB  ARG A   1      31.827  20.890  36.329  0.00  0.00    +0.030 C 
BRANCH  19  20
ATOM     20  CG  ARG A   1      32.810  21.055  37.499  0.00  0.00    +0.045 C 
BRANCH  20  21
ATOM     21  CD  ARG A   1      33.771  19.862  37.527  0.00  0.00    +0.174 C 
BRANCH  21  22
ATOM     22  NE  ARG A   1      33.036  18.621  37.776  0.00  0.00    -0.265 N 
ATOM     23  HE  ARG A   1      32.446  18.571  38.631  0.00  0.00    +0.259 HD
ATOM     24  CZ  ARG A   1      33.070  17.550  36.983  0.00  0.00    +0.342 C 
ATOM     25  NH2 ARG A   1      32.367  16.481  37.298  0.00  0.00    -0.292 N 
ATOM     26 HH21 ARG A   1      31.789  16.475  38.162  0.00  0.00    +0.255 HD
ATOM     27 HH22 ARG A   1      32.390  15.643  36.682  0.00  0.00    +0.255 HD
ATOM     28  NH1 ARG A   1      33.821  17.528  35.887  0.00  0.00    -0.292 N 
ATOM     29 HH11 ARG A   1      34.397  18.357  35.634  0.00  0.00    +0.255 HD
ATOM     30 HH12 ARG A   1      33.833  16.682  35.282  0.00  0.00    +0.255 HD
ENDBRANCH  21  22
ENDBRANCH  20  21
ENDBRANCH  19  20
ENDBRANCH  16  19
ENDBRANCH  12  16
ENDBRANCH  11  14
BRANCH  11  31
ATOM     31  CB  GLU A   2      34.174  24.686  33.514  0.00  0.00    +0.041 C 
BRANCH  31  32
ATOM     32  CG  GLU A   2      35.109  25.917  33.380  0.00  0.00    +0.116 C 
BRANCH  32  33
ATOM     33  CD  GLU A   2      36.228  25.766  32.384  0.00  0.00    +0.365 C 
ATOM     34  OE2 GLU A   2      37.140  26.616  32.440  0.00  0.00    -0.246 OA
ATOM     35  OE1 GLU A   2      36.223  24.815  31.562  0.00  0.00    -0.246 OA
ENDBRANCH  32  33
ENDBRANCH  31  32
ENDBRANCH  11  31
ENDBRANCH   7  11
ENDBRANCH   6   9
BRANCH   6  36
ATOM     36  CB  LEU A   3      29.406  27.099  33.092  0.00  0.00    +0.029 C 
BRANCH  36  37
ATOM     37  CG  LEU A   3      28.476  28.300  32.930  0.00  0.00    +0.002 C 
ATOM     38  CD2 LEU A   3      29.261  29.613  32.705  0.00  0.00    +0.000 C 
ATOM     39  CD1 LEU A   3      27.494  28.067  31.796  0.00  0.00    +0.000 C 
ENDBRANCH  36  37
ENDBRANCH   6  36
ENDBRANCH   2   6
ENDBRANCH   1   3
BRANCH   1  40
ATOM     40  C   ARG A   4      30.078  27.197  38.515  0.00  0.00    +0.241 C 
ATOM     41  O   ARG A   4      29.807  28.132  39.286  0.00  0.00    -0.273 OA
ATOM     42  N   LEU A   5      31.291  26.669  38.418  0.00  0.00    -0.297 N 
ATOM     43  H   LEU A   5      31.468  25.912  37.727  0.00  0.00    +0.150 HD
BRANCH  42  44
ATOM     44  CA  LEU A   5      32.379  27.137  39.267  0.00  0.00    +0.149 C 
BRANCH  44  45
ATOM     45  C   LEU A   5      32.710  28.609  39.066  0.00  0.00    +0.241 C 
ATOM     46  O   LEU A   5      32.888  29.335  40.056  0.00  0.00    -0.273 OA
ATOM     47  N   LEU A   6      32.855  29.011  37.796  0.00  0.00    -0.297 N 
ATOM     48  H   LEU A   6      32.732  28.311  37.037  0.00  0.00    +0.150 HD
BRANCH  47  49
ATOM     49  CA  LEU A   6      33.179  30.392  37.429  0.00  0.00    +0.149 C 
BRANCH  49  50
ATOM     50  C   LEU A   6      32.069  31.359  37.803  0.00  0.00    +0.241 C 
ATOM     51  O   LEU A   6      32.350  32.472  38.238  0.00  0.00    -0.273 OA
ATOM     52  N   LYS A   7      30.816  30.932  37.653  0.00  0.00    -0.298 N 
ATOM     53  H   LYS A   7      30.636  29.969  37.304  0.00  0.00    +0.150 HD
BRANCH  52  54
ATOM     54  CA  LYS A   7      29.700  31.803  37.974  0.00  0.00    +0.137 C 
BRANCH  54  55
ATOM     55  C   LYS A   7      29.643  32.078  39.462  0.00  0.00    +0.227 C 
ATOM     56  O   LYS A   7      29.213  33.145  39.880  0.00  0.00    -0.286 OA
ENDBRANCH  54  55
BRANCH  54  57
ATOM     57  CB  LYS A   7      28.358  31.248  37.480  0.00  0.00    +0.028 C 
BRANCH  57  58
ATOM     58  CG  LYS A   7      28.127  31.495  36.018  0.00  0.00    -0.000 C 
BRANCH  58  59
ATOM     59  CD  LYS A   7      26.747  30.998  35.618  0.00  0.00    -0.024 C 
BRANCH  59  60
ATOM     60  CE  LYS A   7      25.643  31.991  36.026  0.00  0.00    -0.086 C 
BRANCH  60  61
ATOM     61  NZ  LYS A   7      24.291  31.555  35.577  0.00  0.00    +0.380 N 
ATOM     62  HZ1 LYS A   7      24.067  30.633  36.002  0.00  0.00    -0.089 HD
ATOM     63  HZ2 LYS A   7      23.585  32.257  35.876  0.00  0.00    -0.089 HD
ATOM     64  HZ3 LYS A   7      24.281  31.472  34.540  0.00  0.00    -0.089 HD
ENDBRANCH  60  61
ENDBRANCH  59  60
ENDBRANCH  58  59
ENDBRANCH  57  58
ENDBRANCH  54  57
ENDBRANCH  52  54
ENDBRANCH  49  50
BRANCH  49  65
ATOM     65  CB  LEU A   6      33.528  30.513  35.934  0.00  0.00    +0.029 C 
BRANCH  65  66
ATOM     66  CG  LEU A   6      34.810  29.767  35.549  0.00  0.00    +0.002 C 
ATOM     67  CD2 LEU A   6      36.026  30.488  36.156  0.00  0.00    +0.000 C 
ATOM     68  CD1 LEU A   6      34.934  29.620  34.033  0.00  0.00    +0.000 C 
ENDBRANCH  65  66
ENDBRANCH  49  65
ENDBRANCH  47  49
ENDBRANCH  44  45
BRANCH  44  69
ATOM     69  CB  LEU A   5      33.655  26.314  39.056  0.00  0.00    +0.029 C 
BRANCH  69  70
ATOM     70  CG  LEU A   5      33.667  24.881  39.607  0.00  0.00    +0.002 C 
ATOM     71  CD2 LEU A   5      33.815  24.909  41.145  0.00  0.00    +0.000 C 
ATOM     72  CD1 LEU A   5      34.781  24.098  38.914  0.00  0.00    +0.000 C 
ENDBRANCH  69  70
ENDBRANCH  44  69
ENDBRANCH  42  44
ENDBRANCH   1  40
BRANCH   1  73
ATOM     73  CB  ARG A   4      28.492  25.254  38.138  0.00  0.00    +0.033 C 
BRANCH  73  74
ATOM     74  CG  ARG A   4      27.169  24.799  37.501  0.00  0.00    +0.045 C 
BRANCH  74  75
ATOM     75  CD  ARG A   4      25.982  25.719  37.950  0.00  0.00    +0.174 C 
BRANCH  75  76
ATOM     76  NE  ARG A   4      26.012  25.907  39.399  0.00  0.00    -0.265 N 
ATOM     77  CZ  ARG A   4      25.528  25.061  40.304  0.00  0.00    +0.342 C 
ATOM     78  NH2 ARG A   4      25.680  25.339  41.585  0.00  0.00    -0.292 N 
ATOM     79 HH21 ARG A   4      25.308  24.688  42.306  0.00  0.00    +0.255 HD
ATOM     80 HH22 ARG A   4      26.172  26.209  41.874  0.00  0.00    +0.255 HD
ATOM     81  NH1 ARG A   4      24.909  23.944  39.939  0.00  0.00    -0.292 N 
ATOM     82 HH11 ARG A   4      24.537  23.295  40.662  0.00  0.00    +0.255 HD
ATOM     83 HH12 ARG A   4      24.796  23.718  38.930  0.00  0.00    +0.255 HD
ATOM     84  HE  ARG A   4      26.451  26.780  39.754  0.00  0.00    +0.259 HD
ENDBRANCH  75  76
ENDBRANCH  74  75
ENDBRANCH  73  74
ENDBRANCH   1  73
TORSDOF 36
REMARK  Name = ../refined-set-2016/3d7z/3d7z_pocket.pdb
REMARK  249 active torsions:
REMARK  status: ('A' for Active; 'I' for Inactive)
REMARK    1  A    between atoms: _1  and  _3
REMARK    2  A    between atoms: _3  and  _4
REMARK    3  A    between atoms: _3  and  _6
REMARK    4  A    between atoms: _9  and  _11
REMARK    5  A    between atoms: _11  and  _12
REMARK    6  A    between atoms: _14  and  _16
REMARK    7  A    between atoms: _16  and  _17
REMARK    8  A    between atoms: _16  and  _19
REMARK    9  A    between atoms: _19  and  _20
REMARK   10  A    between atoms: _22  and  _24
REMARK   11  A    between atoms: _24  and  _25
REMARK   12  A    between atoms: _28  and  _30
REMARK   13  A    between atoms: _30  and  _31
REMARK   14  A    between atoms: _30  and  _33
REMARK   15  A    between atoms: _33  and  _34
REMARK   16  A    between atoms: _39  and  _40
REMARK   17  A    between atoms: _42  and  _44
REMARK   18  A    between atoms: _44  and  _45
REMARK   19  A    between atoms: _47  and  _49
REMARK   20  A    between atoms: _49  and  _50
REMARK   21  A    between atoms: _49  and  _52
REMARK   22  A    between atoms: _52  and  _53
REMARK   23  A    between atoms: _55  and  _57
REMARK   24  A    between atoms: _57  and  _58
REMARK   25  A    between atoms: _57  and  _60
REMARK   26  A    between atoms: _63  and  _65
REMARK   27  A    between atoms: _65  and  _66
REMARK   28  A    between atoms: _65  and  _68
REMARK   29  A    between atoms: _70  and  _72
REMARK   30  A    between atoms: _72  and  _73
REMARK   31  A    between atoms: _76  and  _78
REMARK   32  A    between atoms: _78  and  _79
REMARK   33  A    between atoms: _78  and  _81
REMARK   34  A    between atoms: _81  and  _82
REMARK   35  A    between atoms: _82  and  _83
REMARK   36  A    between atoms: _83  and  _84
REMARK   37  A    between atoms: _93  and  _95
REMARK   38  A    between atoms: _95  and  _96
REMARK   39  A    between atoms: _95  and  _98
REMARK   40  A    between atoms: _101  and  _103
REMARK   41  A    between atoms: _103  and  _104
REMARK   42  A    between atoms: _107  and  _109
REMARK   43  A    between atoms: _109  and  _110
REMARK   44  A    between atoms: _109  and  _112
REMARK   45  A    between atoms: _115  and  _117
REMARK   46  A    between atoms: _117  and  _118
REMARK   47  A    between atoms: _117  and  _120
REMARK   48  A    between atoms: _120  and  _121
REMARK   49  A    between atoms: _121  and  _122
REMARK   50  A    between atoms: _122  and  _123
REMARK   51  A    between atoms: _123  and  _124
REMARK   52  A    between atoms: _128  and  _130
REMARK   53  A    between atoms: _130  and  _131
REMARK   54  A    between atoms: _130  and  _133
REMARK   55  A    between atoms: _133  and  _134
REMARK   56  A    between atoms: _134  and  _135
REMARK   57  A    between atoms: _135  and  _136
REMARK   58  A    between atoms: _136  and  _137
REMARK   59  A    between atoms: _141  and  _143
REMARK   60  A    between atoms: _143  and  _144
REMARK   61  A    between atoms: _143  and  _146
REMARK   62  A    between atoms: _146  and  _147
REMARK   63  A    between atoms: _150  and  _152
REMARK   64  A    between atoms: _152  and  _153
REMARK   65  A    between atoms: _152  and  _155
REMARK   66  A    between atoms: _155  and  _156
REMARK   67  A    between atoms: _156  and  _157
REMARK   68  A    between atoms: _157  and  _158
REMARK   69  A    between atoms: _167  and  _169
REMARK   70  A    between atoms: _169  and  _170
REMARK   71  A    between atoms: _169  and  _172
REMARK   72  A    between atoms: _172  and  _173
REMARK   73  A    between atoms: _173  and  _174
REMARK   74  A    between atoms: _174  and  _175
REMARK   75  A    between atoms: _184  and  _186
REMARK   76  A    between atoms: _186  and  _187
REMARK   77  A    between atoms: _186  and  _189
REMARK   78  A    between atoms: _189  and  _190
REMARK   79  A    between atoms: _190  and  _191
REMARK   80  A    between atoms: _194  and  _196
REMARK   81  A    between atoms: _196  and  _197
REMARK   82  A    between atoms: _196  and  _199
REMARK   83  A    between atoms: _199  and  _200
REMARK   84  A    between atoms: _203  and  _205
REMARK   85  A    between atoms: _205  and  _206
REMARK   86  A    between atoms: _205  and  _208
REMARK   87  A    between atoms: _208  and  _209
REMARK   88  A    between atoms: _209  and  _210
REMARK   89  A    between atoms: _210  and  _211
REMARK   90  A    between atoms: _220  and  _222
REMARK   91  A    between atoms: _222  and  _223
REMARK   92  A    between atoms: _222  and  _225
REMARK   93  A    between atoms: _225  and  _226
REMARK   94  A    between atoms: _229  and  _231
REMARK   95  A    between atoms: _231  and  _232
REMARK   96  A    between atoms: _231  and  _234
REMARK   97  A    between atoms: _234  and  _235
REMARK   98  A    between atoms: _238  and  _240
REMARK   99  A    between atoms: _240  and  _241
REMARK  100  A    between atoms: _240  and  _243
REMARK  101  A    between atoms: _243  and  _244
REMARK  102  A    between atoms: _244  and  _245
REMARK  103  A    between atoms: _245  and  _246
REMARK  104  A    between atoms: _246  and  _247
REMARK  105  A    between atoms: _251  and  _253
REMARK  106  A    between atoms: _253  and  _254
REMARK  107  A    between atoms: _253  and  _256
REMARK  108  A    between atoms: _256  and  _257
REMARK  109  A    between atoms: _257  and  _258
REMARK  110  A    between atoms: _260  and  _262
REMARK  111  A    between atoms: _262  and  _263
REMARK  112  A    between atoms: _262  and  _265
REMARK  113  A    between atoms: _268  and  _270
REMARK  114  A    between atoms: _270  and  _271
REMARK  115  A    between atoms: _270  and  _273
REMARK  116  A    between atoms: _273  and  _274
REMARK  117  A    between atoms: _277  and  _279
REMARK  118  A    between atoms: _279  and  _280
REMARK  119  A    between atoms: _282  and  _284
REMARK  120  A    between atoms: _284  and  _285
REMARK  121  A    between atoms: _284  and  _287
REMARK  122  A    between atoms: _287  and  _288
REMARK  123  A    between atoms: _291  and  _293
REMARK  124  A    between atoms: _293  and  _294
REMARK  125  A    between atoms: _293  and  _296
REMARK  126  A    between atoms: _296  and  _297
REMARK  127  A    between atoms: _300  and  _302
REMARK  128  A    between atoms: _302  and  _303
REMARK  129  A    between atoms: _302  and  _305
REMARK  130  A    between atoms: _305  and  _306
REMARK  131  A    between atoms: _309  and  _311
REMARK  132  A    between atoms: _311  and  _312
REMARK  133  A    between atoms: _311  and  _314
REMARK  134  A    between atoms: _314  and  _315
REMARK  135  A    between atoms: _320  and  _321
REMARK  136  A    between atoms: _323  and  _325
REMARK  137  A    between atoms: _325  and  _326
REMARK  138  A    between atoms: _325  and  _328
REMARK  139  A    between atoms: _328  and  _329
REMARK  140  A    between atoms: _332  and  _334
REMARK  141  A    between atoms: _334  and  _335
REMARK  142  A    between atoms: _334  and  _337
REMARK  143  A    between atoms: _340  and  _342
REMARK  144  A    between atoms: _342  and  _343
REMARK  145  A    between atoms: _342  and  _345
REMARK  146  A    between atoms: _345  and  _346
REMARK  147  A    between atoms: _349  and  _351
REMARK  148  A    between atoms: _351  and  _352
REMARK  149  A    between atoms: _351  and  _354
REMARK  150  A    between atoms: _354  and  _355
REMARK  151  A    between atoms: _360  and  _362
REMARK  152  A    between atoms: _362  and  _363
REMARK  153  A    between atoms: _362  and  _365
REMARK  154  A    between atoms: _365  and  _366
REMARK  155  A    between atoms: _369  and  _371
REMARK  156  A    between atoms: _371  and  _372
REMARK  157  A    between atoms: _371  and  _374
REMARK  158  A    between atoms: _374  and  _375
REMARK  159  A    between atoms: _375  and  _376
REMARK  160  A    between atoms: _378  and  _380
REMARK  161  A    between atoms: _380  and  _381
REMARK  162  A    between atoms: _383  and  _385
REMARK  163  A    between atoms: _385  and  _386
REMARK  164  A    between atoms: _389  and  _391
REMARK  165  A    between atoms: _391  and  _392
REMARK  166  A    between atoms: _391  and  _394
REMARK  167  A    between atoms: _394  and  _395
REMARK  168  A    between atoms: _398  and  _400
REMARK  169  A    between atoms: _400  and  _401
REMARK  170  A    between atoms: _400  and  _403
REMARK  171  A    between atoms: _403  and  _404
REMARK  172  A    between atoms: _407  and  _409
REMARK  173  A    between atoms: _409  and  _410
REMARK  174  A    between atoms: _409  and  _412
REMARK  175  A    between atoms: _412  and  _413
REMARK  176  A    between atoms: _418  and  _420
REMARK  177  A    between atoms: _420  and  _421
REMARK  178  A    between atoms: _420  and  _423
REMARK  179  A    between atoms: _423  and  _424
REMARK  180  A    between atoms: _429  and  _431
REMARK  181  A    between atoms: _431  and  _432
REMARK  182  A    between atoms: _431  and  _434
REMARK  183  A    between atoms: _434  and  _435
REMARK  184  A    between atoms: _438  and  _440
REMARK  185  A    between atoms: _440  and  _441
REMARK  186  A    between atoms: _440  and  _443
REMARK  187  A    between atoms: _443  and  _444
REMARK  188  A    between atoms: _447  and  _449
REMARK  189  A    between atoms: _449  and  _450
REMARK  190  A    between atoms: _449  and  _452
REMARK  191  A    between atoms: _452  and  _453
REMARK  192  A    between atoms: _459  and  _460
REMARK  193  A    between atoms: _465  and  _467
REMARK  194  A    between atoms: _467  and  _468
REMARK  195  A    between atoms: _467  and  _470
REMARK  196  A    between atoms: _470  and  _471
REMARK  197  A    between atoms: _473  and  _475
REMARK  198  A    between atoms: _475  and  _476
REMARK  199  A    between atoms: _475  and  _478
REMARK  200  A    between atoms: _478  and  _479
REMARK  201  A    between atoms: _484  and  _486
REMARK  202  A    between atoms: _486  and  _487
REMARK  203  A    between atoms: _486  and  _489
REMARK  204  A    between atoms: _489  and  _490
REMARK  205  A    between atoms: _493  and  _495
REMARK  206  A    between atoms: _495  and  _496
REMARK  207  A    between atoms: _499  and  _501
REMARK  208  A    between atoms: _501  and  _502
REMARK  209  A    between atoms: _501  and  _504
REMARK  210  A    between atoms: _507  and  _509
REMARK  211  A    between atoms: _509  and  _510
REMARK  212  A    between atoms: _509  and  _512
REMARK  213  A    between atoms: _512  and  _513
REMARK  214  A    between atoms: _518  and  _520
REMARK  215  A    between atoms: _520  and  _521
REMARK  216  A    between atoms: _520  and  _523
REMARK  217  A    between atoms: _523  and  _524
REMARK  218  A    between atoms: _524  and  _525
REMARK  219  A    between atoms: _525  and  _526
REMARK  220  A    between atoms: _526  and  _527
REMARK  221  A    between atoms: _531  and  _533
REMARK  222  A    between atoms: _533  and  _534
REMARK  223  A    between atoms: _533  and  _536
REMARK  224  A    between atoms: _536  and  _537
REMARK  225  A    between atoms: _540  and  _542
REMARK  226  A    between atoms: _542  and  _543
REMARK  227  A    between atoms: _542  and  _545
REMARK  228  A    between atoms: _545  and  _546
REMARK  229  A    between atoms: _549  and  _551
REMARK  230  A    between atoms: _551  and  _552
REMARK  231  A    between atoms: _551  and  _554
REMARK  232  A    between atoms: _554  and  _555
REMARK  233  A    between atoms: _558  and  _560
REMARK  234  A    between atoms: _560  and  _561
REMARK  235  A    between atoms: _560  and  _563
REMARK  236  A    between atoms: _563  and  _564
REMARK  237  A    between atoms: _570  and  _572
REMARK  238  A    between atoms: _572  and  _573
REMARK  239  A    between atoms: _575  and  _577
REMARK  240  A    between atoms: _577  and  _578
REMARK  241  A    between atoms: _577  and  _580
REMARK  242  A    between atoms: _580  and  _581
REMARK  243  A    between atoms: _584  and  _586
REMARK  244  A    between atoms: _586  and  _587
REMARK  245  A    between atoms: _592  and  _593
REMARK  246  A    between atoms: _592  and  _595
REMARK  247  A    between atoms: _595  and  _596
REMARK  248  A    between atoms: _596  and  _597
REMARK  249  A    between atoms: _597  and  _598
REMARK                            x       y       z     vdW  Elec       q    Type
REMARK                         _______ _______ _______ _____ _____    ______ ____
ROOT
ATOM      1  CA  MET A   1      33.502  32.702  42.425  0.00  0.00    +0.134 C 
ENDROOT
BRANCH   1   2
ATOM      2  N   MET A   1      32.323  32.118  41.764  0.00  0.00    -0.239 NA
ATOM      3  H   MET A   1      32.445  31.645  40.846  0.00  0.00    +0.142 HD
ENDBRANCH   1   2
BRANCH   1   4
ATOM      4  C   MET A   1      33.594  34.194  42.284  0.00  0.00    +0.224 C 
ATOM      5  O   MET A   1      33.846  34.694  41.181  0.00  0.00    -0.287 OA
ENDBRANCH   1   4
BRANCH   1   6
ATOM      6  CB  MET A   1      34.821  32.114  41.886  0.00  0.00    +0.037 C 
BRANCH   6   7
ATOM      7  CG  MET A   1      35.012  30.631  42.057  0.00  0.00    +0.059 C 
BRANCH   7   8
ATOM      8  SD  MET A   1      35.138  30.073  43.757  0.00  0.00    -0.139 S 
ATOM      9  CE  MET A   1      33.477  29.604  44.080  0.00  0.00    +0.069 C 
ENDBRANCH   7   8
ENDBRANCH   6   7
ENDBRANCH   1   6
TORSDOF 5
REMARK  Name = ../refined-set-2016/3d7z/3d7z_pocket.pdb
REMARK  249 active torsions:
REMARK  status: ('A' for Active; 'I' for Inactive)
REMARK    1  A    between atoms: _1  and  _3
REMARK    2  A    between atoms: _3  and  _4
REMARK    3  A    between atoms: _3  and  _6
REMARK    4  A    between atoms: _9  and  _11
REMARK    5  A    between atoms: _11  and  _12
REMARK    6  A    between atoms: _14  and  _16
REMARK    7  A    between atoms: _16  and  _17
REMARK    8  A    between atoms: _16  and  _19
REMARK    9  A    between atoms: _19  and  _20
REMARK   10  A    between atoms: _22  and  _24
REMARK   11  A    between atoms: _24  and  _25
REMARK   12  A    between atoms: _28  and  _30
REMARK   13  A    between atoms: _30  and  _31
REMARK   14  A    between atoms: _30  and  _33
REMARK   15  A    between atoms: _33  and  _34
REMARK   16  A    between atoms: _39  and  _40
REMARK   17  A    between atoms: _42  and  _44
REMARK   18  A    between atoms: _44  and  _45
REMARK   19  A    between atoms: _47  and  _49
REMARK   20  A    between atoms: _49  and  _50
REMARK   21  A    between atoms: _49  and  _52
REMARK   22  A    between atoms: _52  and  _53
REMARK   23  A    between atoms: _55  and  _57
REMARK   24  A    between atoms: _57  and  _58
REMARK   25  A    between atoms: _57  and  _60
REMARK   26  A    between atoms: _63  and  _65
REMARK   27  A    between atoms: _65  and  _66
REMARK   28  A    between atoms: _65  and  _68
REMARK   29  A    between atoms: _70  and  _72
REMARK   30  A    between atoms: _72  and  _73
REMARK   31  A    between atoms: _76  and  _78
REMARK   32  A    between atoms: _78  and  _79
REMARK   33  A    between atoms: _78  and  _81
REMARK   34  A    between atoms: _81  and  _82
REMARK   35  A    between atoms: _82  and  _83
REMARK   36  A    between atoms: _83  and  _84
REMARK   37  A    between atoms: _93  and  _95
REMARK   38  A    between atoms: _95  and  _96
REMARK   39  A    between atoms: _95  and  _98
REMARK   40  A    between atoms: _101  and  _103
REMARK   41  A    between atoms: _103  and  _104
REMARK   42  A    between atoms: _107  and  _109
REMARK   43  A    between atoms: _109  and  _110
REMARK   44  A    between atoms: _109  and  _112
REMARK   45  A    between atoms: _115  and  _117
REMARK   46  A    between atoms: _117  and  _118
REMARK   47  A    between atoms: _117  and  _120
REMARK   48  A    between atoms: _120  and  _121
REMARK   49  A    between atoms: _121  and  _122
REMARK   50  A    between atoms: _122  and  _123
REMARK   51  A    between atoms: _123  and  _124
REMARK   52  A    between atoms: _128  and  _130
REMARK   53  A    between atoms: _130  and  _131
REMARK   54  A    between atoms: _130  and  _133
REMARK   55  A    between atoms: _133  and  _134
REMARK   56  A    between atoms: _134  and  _135
REMARK   57  A    between atoms: _135  and  _136
REMARK   58  A    between atoms: _136  and  _137
REMARK   59  A    between atoms: _141  and  _143
REMARK   60  A    between atoms: _143  and  _144
REMARK   61  A    between atoms: _143  and  _146
REMARK   62  A    between atoms: _146  and  _147
REMARK   63  A    between atoms: _150  and  _152
REMARK   64  A    between atoms: _152  and  _153
REMARK   65  A    between atoms: _152  and  _155
REMARK   66  A    between atoms: _155  and  _156
REMARK   67  A    between atoms: _156  and  _157
REMARK   68  A    between atoms: _157  and  _158
REMARK   69  A    between atoms: _167  and  _169
REMARK   70  A    between atoms: _169  and  _170
REMARK   71  A    between atoms: _169  and  _172
REMARK   72  A    between atoms: _172  and  _173
REMARK   73  A    between atoms: _173  and  _174
REMARK   74  A    between atoms: _174  and  _175
REMARK   75  A    between atoms: _184  and  _186
REMARK   76  A    between atoms: _186  and  _187
REMARK   77  A    between atoms: _186  and  _189
REMARK   78  A    between atoms: _189  and  _190
REMARK   79  A    between atoms: _190  and  _191
REMARK   80  A    between atoms: _194  and  _196
REMARK   81  A    between atoms: _196  and  _197
REMARK   82  A    between atoms: _196  and  _199
REMARK   83  A    between atoms: _199  and  _200
REMARK   84  A    between atoms: _203  and  _205
REMARK   85  A    between atoms: _205  and  _206
REMARK   86  A    between atoms: _205  and  _208
REMARK   87  A    between atoms: _208  and  _209
REMARK   88  A    between atoms: _209  and  _210
REMARK   89  A    between atoms: _210  and  _211
REMARK   90  A    between atoms: _220  and  _222
REMARK   91  A    between atoms: _222  and  _223
REMARK   92  A    between atoms: _222  and  _225
REMARK   93  A    between atoms: _225  and  _226
REMARK   94  A    between atoms: _229  and  _231
REMARK   95  A    between atoms: _231  and  _232
REMARK   96  A    between atoms: _231  and  _234
REMARK   97  A    between atoms: _234  and  _235
REMARK   98  A    between atoms: _238  and  _240
REMARK   99  A    between atoms: _240  and  _241
REMARK  100  A    between atoms: _240  and  _243
REMARK  101  A    between atoms: _243  and  _244
REMARK  102  A    between atoms: _244  and  _245
REMARK  103  A    between atoms: _245  and  _246
REMARK  104  A    between atoms: _246  and  _247
REMARK  105  A    between atoms: _251  and  _253
REMARK  106  A    between atoms: _253  and  _254
REMARK  107  A    between atoms: _253  and  _256
REMARK  108  A    between atoms: _256  and  _257
REMARK  109  A    between atoms: _257  and  _258
REMARK  110  A    between atoms: _260  and  _262
REMARK  111  A    between atoms: _262  and  _263
REMARK  112  A    between atoms: _262  and  _265
REMARK  113  A    between atoms: _268  and  _270
REMARK  114  A    between atoms: _270  and  _271
REMARK  115  A    between atoms: _270  and  _273
REMARK  116  A    between atoms: _273  and  _274
REMARK  117  A    between atoms: _277  and  _279
REMARK  118  A    between atoms: _279  and  _280
REMARK  119  A    between atoms: _282  and  _284
REMARK  120  A    between atoms: _284  and  _285
REMARK  121  A    between atoms: _284  and  _287
REMARK  122  A    between atoms: _287  and  _288
REMARK  123  A    between atoms: _291  and  _293
REMARK  124  A    between atoms: _293  and  _294
REMARK  125  A    between atoms: _293  and  _296
REMARK  126  A    between atoms: _296  and  _297
REMARK  127  A    between atoms: _300  and  _302
REMARK  128  A    between atoms: _302  and  _303
REMARK  129  A    between atoms: _302  and  _305
REMARK  130  A    between atoms: _305  and  _306
REMARK  131  A    between atoms: _309  and  _311
REMARK  132  A    between atoms: _311  and  _312
REMARK  133  A    between atoms: _311  and  _314
REMARK  134  A    between atoms: _314  and  _315
REMARK  135  A    between atoms: _320  and  _321
REMARK  136  A    between atoms: _323  and  _325
REMARK  137  A    between atoms: _325  and  _326
REMARK  138  A    between atoms: _325  and  _328
REMARK  139  A    between atoms: _328  and  _329
REMARK  140  A    between atoms: _332  and  _334
REMARK  141  A    between atoms: _334  and  _335
REMARK  142  A    between atoms: _334  and  _337
REMARK  143  A    between atoms: _340  and  _342
REMARK  144  A    between atoms: _342  and  _343
REMARK  145  A    between atoms: _342  and  _345
REMARK  146  A    between atoms: _345  and  _346
REMARK  147  A    between atoms: _349  and  _351
REMARK  148  A    between atoms: _351  and  _352
REMARK  149  A    between atoms: _351  and  _354
REMARK  150  A    between atoms: _354  and  _355
REMARK  151  A    between atoms: _360  and  _362
REMARK  152  A    between atoms: _362  and  _363
REMARK  153  A    between atoms: _362  and  _365
REMARK  154  A    between atoms: _365  and  _366
REMARK  155  A    between atoms: _369  and  _371
REMARK  156  A    between atoms: _371  and  _372
REMARK  157  A    between atoms: _371  and  _374
REMARK  158  A    between atoms: _374  and  _375
REMARK  159  A    between atoms: _375  and  _376
REMARK  160  A    between atoms: _378  and  _380
REMARK  161  A    between atoms: _380  and  _381
REMARK  162  A    between atoms: _383  and  _385
REMARK  163  A    between atoms: _385  and  _386
REMARK  164  A    between atoms: _389  and  _391
REMARK  165  A    between atoms: _391  and  _392
REMARK  166  A    between atoms: _391  and  _394
REMARK  167  A    between atoms: _394  and  _395
REMARK  168  A    between atoms: _398  and  _400
REMARK  169  A    between atoms: _400  and  _401
REMARK  170  A    between atoms: _400  and  _403
REMARK  171  A    between atoms: _403  and  _404
REMARK  172  A    between atoms: _407  and  _409
REMARK  173  A    between atoms: _409  and  _410
REMARK  174  A    between atoms: _409  and  _412
REMARK  175  A    between atoms: _412  and  _413
REMARK  176  A    between atoms: _418  and  _420
REMARK  177  A    between atoms: _420  and  _421
REMARK  178  A    between atoms: _420  and  _423
REMARK  179  A    between atoms: _423  and  _424
REMARK  180  A    between atoms: _429  and  _431
REMARK  181  A    between atoms: _431  and  _432
REMARK  182  A    between atoms: _431  and  _434
REMARK  183  A    between atoms: _434  and  _435
REMARK  184  A    between atoms: _438  and  _440
REMARK  185  A    between atoms: _440  and  _441
REMARK  186  A    between atoms: _440  and  _443
REMARK  187  A    between atoms: _443  and  _444
REMARK  188  A    between atoms: _447  and  _449
REMARK  189  A    between atoms: _449  and  _450
REMARK  190  A    between atoms: _449  and  _452
REMARK  191  A    between atoms: _452  and  _453
REMARK  192  A    between atoms: _459  and  _460
REMARK  193  A    between atoms: _465  and  _467
REMARK  194  A    between atoms: _467  and  _468
REMARK  195  A    between atoms: _467  and  _470
REMARK  196  A    between atoms: _470  and  _471
REMARK  197  A    between atoms: _473  and  _475
REMARK  198  A    between atoms: _475  and  _476
REMARK  199  A    between atoms: _475  and  _478
REMARK  200  A    between atoms: _478  and  _479
REMARK  201  A    between atoms: _484  and  _486
REMARK  202  A    between atoms: _486  and  _487
REMARK  203  A    between atoms: _486  and  _489
REMARK  204  A    between atoms: _489  and  _490
REMARK  205  A    between atoms: _493  and  _495
REMARK  206  A    between atoms: _495  and  _496
REMARK  207  A    between atoms: _499  and  _501
REMARK  208  A    between atoms: _501  and  _502
REMARK  209  A    between atoms: _501  and  _504
REMARK  210  A    between atoms: _507  and  _509
REMARK  211  A    between atoms: _509  and  _510
REMARK  212  A    between atoms: _509  and  _512
REMARK  213  A    between atoms: _512  and  _513
REMARK  214  A    between atoms: _518  and  _520
REMARK  215  A    between atoms: _520  and  _521
REMARK  216  A    between atoms: _520  and  _523
REMARK  217  A    between atoms: _523  and  _524
REMARK  218  A    between atoms: _524  and  _525
REMARK  219  A    between atoms: _525  and  _526
REMARK  220  A    between atoms: _526  and  _527
REMARK  221  A    between atoms: _531  and  _533
REMARK  222  A    between atoms: _533  and  _534
REMARK  223  A    between atoms: _533  and  _536
REMARK  224  A    between atoms: _536  and  _537
REMARK  225  A    between atoms: _540  and  _542
REMARK  226  A    between atoms: _542  and  _543
REMARK  227  A    between atoms: _542  and  _545
REMARK  228  A    between atoms: _545  and  _546
REMARK  229  A    between atoms: _549  and  _551
REMARK  230  A    between atoms: _551  and  _552
REMARK  231  A    between atoms: _551  and  _554
REMARK  232  A    between atoms: _554  and  _555
REMARK  233  A    between atoms: _558  and  _560
REMARK  234  A    between atoms: _560  and  _561
REMARK  235  A    between atoms: _560  and  _563
REMARK  236  A    between atoms: _563  and  _564
REMARK  237  A    between atoms: _570  and  _572
REMARK  238  A    between atoms: _572  and  _573
REMARK  239  A    between atoms: _575  and  _577
REMARK  240  A    between atoms: _577  and  _578
REMARK  241  A    between atoms: _577  and  _580
REMARK  242  A    between atoms: _580  and  _581
REMARK  243  A    between atoms: _584  and  _586
REMARK  244  A    between atoms: _586  and  _587
REMARK  245  A    between atoms: _592  and  _593
REMARK  246  A    between atoms: _592  and  _595
REMARK  247  A    between atoms: _595  and  _596
REMARK  248  A    between atoms: _596  and  _597
REMARK  249  A    between atoms: _597  and  _598
REMARK                            x       y       z     vdW  Elec       q    Type
REMARK                         _______ _______ _______ _____ _____    ______ ____
ROOT
ATOM      1  CA  LEU A   4      33.461  35.197  35.176  0.00  0.00    +0.149 C 
ENDROOT
BRANCH   1   3
ATOM      2  C   GLY A   3      35.347  35.069  36.695  0.00  0.00    +0.243 C 
ATOM      3  N   LEU A   4      34.034  35.070  36.510  0.00  0.00    -0.297 N 
ATOM      4  H   LEU A   4      33.402  34.979  37.331  0.00  0.00    +0.150 HD
ATOM      5  O   GLY A   3      36.172  35.292  35.793  0.00  0.00    -0.273 OA
BRANCH   2   6
ATOM      6  CA  GLY A   3      35.801  34.792  38.102  0.00  0.00    +0.176 C 
BRANCH   6   9
ATOM      7  C   ILE A   2      37.903  33.824  38.768  0.00  0.00    +0.241 C 
ATOM      8  O   ILE A   2      37.325  32.900  39.345  0.00  0.00    -0.273 OA
ATOM      9  N   GLY A   3      37.246  34.779  38.126  0.00  0.00    -0.295 N 
ATOM     10  H   GLY A   3      37.776  35.527  37.634  0.00  0.00    +0.150 HD
BRANCH   7  11
ATOM     11  CA  ILE A   2      39.436  33.941  38.772  0.00  0.00    +0.148 C 
BRANCH  11  14
ATOM     12  C   VAL A   1      39.606  34.319  41.161  0.00  0.00    +0.238 C 
ATOM     13  O   VAL A   1      38.854  35.314  41.096  0.00  0.00    -0.274 OA
ATOM     14  N   ILE A   2      39.947  33.585  40.094  0.00  0.00    -0.297 N 
ATOM     15  H   ILE A   2      40.574  32.763  40.206  0.00  0.00    +0.150 HD
BRANCH  12  16
ATOM     16  CA  VAL A   1      40.156  33.885  42.486  0.00  0.00    +0.145 C 
BRANCH  16  17
ATOM     17  CB  VAL A   1      39.008  33.237  43.315  0.00  0.00    +0.025 C 
ATOM     18  CG2 VAL A   1      39.449  32.961  44.743  0.00  0.00    +0.002 C 
ATOM     19  CG1 VAL A   1      38.539  31.942  42.666  0.00  0.00    +0.002 C 
ENDBRANCH  16  17
BRANCH  16  20
ATOM     20  N   VAL A   1      40.698  35.083  43.097  0.00  0.00    -0.238 NA
ATOM     21  H   VAL A   1      40.164  35.972  43.020  0.00  0.00    +0.142 HD
ENDBRANCH  16  20
ENDBRANCH  12  16
ENDBRANCH  11  14
BRANCH  11  22
ATOM     22  CB  ILE A   2      40.107  33.113  37.601  0.00  0.00    +0.027 C 
ATOM     23  CG2 ILE A   2      39.471  31.708  37.434  0.00  0.00    +0.002 C 
BRANCH  22  24
ATOM     24  CG1 ILE A   2      40.028  33.887  36.281  0.00  0.00    +0.002 C 
ATOM     25  CD1 ILE A   2      40.858  35.172  36.277  0.00  0.00    +0.000 C 
ENDBRANCH  22  24
ENDBRANCH  11  22
ENDBRANCH   7  11
ENDBRANCH   6   9
ENDBRANCH   2   6
ENDBRANCH   1   3
BRANCH   1  26
ATOM     26  C   LEU A   4      33.066  36.648  34.818  0.00  0.00    +0.241 C 
ATOM     27  O   LEU A   4      32.193  37.252  35.452  0.00  0.00    -0.273 OA
ATOM     28  N   LEU A   5      33.723  37.208  33.815  0.00  0.00    -0.297 N 
ATOM     29  H   LEU A   5      34.517  36.695  33.381  0.00  0.00    +0.150 HD
BRANCH  28  30
ATOM     30  CA  LEU A   5      33.362  38.535  33.297  0.00  0.00    +0.149 C 
BRANCH  30  31
ATOM     31  C   LEU A   5      32.171  38.403  32.339  0.00  0.00    +0.241 C 
ATOM     32  O   LEU A   5      31.284  39.247  32.333  0.00  0.00    -0.273 OA
ATOM     33  N   ASP A   6      32.137  37.326  31.558  0.00  0.00    -0.298 N 
ATOM     34  H   ASP A   6      32.861  36.588  31.673  0.00  0.00    +0.150 HD
BRANCH  33  35
ATOM     35  CA  ASP A   6      31.092  37.162  30.534  0.00  0.00    +0.148 C 
BRANCH  35  36
ATOM     36  C   ASP A   6      31.077  35.701  30.143  0.00  0.00    +0.227 C 
ATOM     37  O   ASP A   6      32.085  34.989  30.274  0.00  0.00    -0.286 OA
ENDBRANCH  35  36
BRANCH  35  38
ATOM     38  CB  ASP A   6      31.420  38.055  29.312  0.00  0.00    +0.142 C 
BRANCH  38  39
ATOM     39  CG  ASP A   6      30.239  38.273  28.359  0.00  0.00    +0.367 C 
ATOM     40  OD2 ASP A   6      29.067  37.962  28.694  0.00  0.00    -0.246 OA
ATOM     41  OD1 ASP A   6      30.499  38.799  27.245  0.00  0.00    -0.246 OA
ENDBRANCH  38  39
ENDBRANCH  35  38
ENDBRANCH  33  35
ENDBRANCH  30  31
BRANCH  30  42
ATOM     42  CB  LEU A   5      34.558  39.204  32.597  0.00  0.00    +0.029 C 
BRANCH  42  43
ATOM     43  CG  LEU A   5      35.778  39.644  33.442  0.00  0.00    +0.002 C 
ATOM     44  CD2 LEU A   5      35.349  40.511  34.628  0.00  0.00    +0.000 C 
ATOM     45  CD1 LEU A   5      36.810  40.416  32.607  0.00  0.00    +0.000 C 
ENDBRANCH  42  43
ENDBRANCH  30  42
ENDBRANCH  28  30
ENDBRANCH   1  26
BRANCH   1  46
ATOM     46  CB  LEU A   4      32.264  34.244  35.051  0.00  0.00    +0.029 C 
BRANCH  46  47
ATOM     47  CG  LEU A   4      31.742  33.931  33.646  0.00  0.00    +0.002 C 
ATOM     48  CD2 LEU A   4      30.523  33.005  33.740  0.00  0.00    +0.000 C 
ATOM     49  CD1 LEU A   4      32.857  33.290  32.794  0.00  0.00    +0.000 C 
ENDBRANCH  46  47
ENDBRANCH   1  46
TORSDOF 21
REMARK  Name = ../refined-set-2016/3d7z/3d7z_pocket.pdb
REMARK  249 active torsions:
REMARK  status: ('A' for Active; 'I' for Inactive)
REMARK    1  A    between atoms: _1  and  _3
REMARK    2  A    between atoms: _3  and  _4
REMARK    3  A    between atoms: _3  and  _6
REMARK    4  A    between atoms: _9  and  _11
REMARK    5  A    between atoms: _11  and  _12
REMARK    6  A    between atoms: _14  and  _16
REMARK    7  A    between atoms: _16  and  _17
REMARK    8  A    between atoms: _16  and  _19
REMARK    9  A    between atoms: _19  and  _20
REMARK   10  A    between atoms: _22  and  _24
REMARK   11  A    between atoms: _24  and  _25
REMARK   12  A    between atoms: _28  and  _30
REMARK   13  A    between atoms: _30  and  _31
REMARK   14  A    between atoms: _30  and  _33
REMARK   15  A    between atoms: _33  and  _34
REMARK   16  A    between atoms: _39  and  _40
REMARK   17  A    between atoms: _42  and  _44
REMARK   18  A    between atoms: _44  and  _45
REMARK   19  A    between atoms: _47  and  _49
REMARK   20  A    between atoms: _49  and  _50
REMARK   21  A    between atoms: _49  and  _52
REMARK   22  A    between atoms: _52  and  _53
REMARK   23  A    between atoms: _55  and  _57
REMARK   24  A    between atoms: _57  and  _58
REMARK   25  A    between atoms: _57  and  _60
REMARK   26  A    between atoms: _63  and  _65
REMARK   27  A    between atoms: _65  and  _66
REMARK   28  A    between atoms: _65  and  _68
REMARK   29  A    between atoms: _70  and  _72
REMARK   30  A    between atoms: _72  and  _73
REMARK   31  A    between atoms: _76  and  _78
REMARK   32  A    between atoms: _78  and  _79
REMARK   33  A    between atoms: _78  and  _81
REMARK   34  A    between atoms: _81  and  _82
REMARK   35  A    between atoms: _82  and  _83
REMARK   36  A    between atoms: _83  and  _84
REMARK   37  A    between atoms: _93  and  _95
REMARK   38  A    between atoms: _95  and  _96
REMARK   39  A    between atoms: _95  and  _98
REMARK   40  A    between atoms: _101  and  _103
REMARK   41  A    between atoms: _103  and  _104
REMARK   42  A    between atoms: _107  and  _109
REMARK   43  A    between atoms: _109  and  _110
REMARK   44  A    between atoms: _109  and  _112
REMARK   45  A    between atoms: _115  and  _117
REMARK   46  A    between atoms: _117  and  _118
REMARK   47  A    between atoms: _117  and  _120
REMARK   48  A    between atoms: _120  and  _121
REMARK   49  A    between atoms: _121  and  _122
REMARK   50  A    between atoms: _122  and  _123
REMARK   51  A    between atoms: _123  and  _124
REMARK   52  A    between atoms: _128  and  _130
REMARK   53  A    between atoms: _130  and  _131
REMARK   54  A    between atoms: _130  and  _133
REMARK   55  A    between atoms: _133  and  _134
REMARK   56  A    between atoms: _134  and  _135
REMARK   57  A    between atoms: _135  and  _136
REMARK   58  A    between atoms: _136  and  _137
REMARK   59  A    between atoms: _141  and  _143
REMARK   60  A    between atoms: _143  and  _144
REMARK   61  A    between atoms: _143  and  _146
REMARK   62  A    between atoms: _146  and  _147
REMARK   63  A    between atoms: _150  and  _152
REMARK   64  A    between atoms: _152  and  _153
REMARK   65  A    between atoms: _152  and  _155
REMARK   66  A    between atoms: _155  and  _156
REMARK   67  A    between atoms: _156  and  _157
REMARK   68  A    between atoms: _157  and  _158
REMARK   69  A    between atoms: _167  and  _169
REMARK   70  A    between atoms: _169  and  _170
REMARK   71  A    between atoms: _169  and  _172
REMARK   72  A    between atoms: _172  and  _173
REMARK   73  A    between atoms: _173  and  _174
REMARK   74  A    between atoms: _174  and  _175
REMARK   75  A    between atoms: _184  and  _186
REMARK   76  A    between atoms: _186  and  _187
REMARK   77  A    between atoms: _186  and  _189
REMARK   78  A    between atoms: _189  and  _190
REMARK   79  A    between atoms: _190  and  _191
REMARK   80  A    between atoms: _194  and  _196
REMARK   81  A    between atoms: _196  and  _197
REMARK   82  A    between atoms: _196  and  _199
REMARK   83  A    between atoms: _199  and  _200
REMARK   84  A    between atoms: _203  and  _205
REMARK   85  A    between atoms: _205  and  _206
REMARK   86  A    between atoms: _205  and  _208
REMARK   87  A    between atoms: _208  and  _209
REMARK   88  A    between atoms: _209  and  _210
REMARK   89  A    between atoms: _210  and  _211
REMARK   90  A    between atoms: _220  and  _222
REMARK   91  A    between atoms: _222  and  _223
REMARK   92  A    between atoms: _222  and  _225
REMARK   93  A    between atoms: _225  and  _226
REMARK   94  A    between atoms: _229  and  _231
REMARK   95  A    between atoms: _231  and  _232
REMARK   96  A    between atoms: _231  and  _234
REMARK   97  A    between atoms: _234  and  _235
REMARK   98  A    between atoms: _238  and  _240
REMARK   99  A    between atoms: _240  and  _241
REMARK  100  A    between atoms: _240  and  _243
REMARK  101  A    between atoms: _243  and  _244
REMARK  102  A    between atoms: _244  and  _245
REMARK  103  A    between atoms: _245  and  _246
REMARK  104  A    between atoms: _246  and  _247
REMARK  105  A    between atoms: _251  and  _253
REMARK  106  A    between atoms: _253  and  _254
REMARK  107  A    between atoms: _253  and  _256
REMARK  108  A    between atoms: _256  and  _257
REMARK  109  A    between atoms: _257  and  _258
REMARK  110  A    between atoms: _260  and  _262
REMARK  111  A    between atoms: _262  and  _263
REMARK  112  A    between atoms: _262  and  _265
REMARK  113  A    between atoms: _268  and  _270
REMARK  114  A    between atoms: _270  and  _271
REMARK  115  A    between atoms: _270  and  _273
REMARK  116  A    between atoms: _273  and  _274
REMARK  117  A    between atoms: _277  and  _279
REMARK  118  A    between atoms: _279  and  _280
REMARK  119  A    between atoms: _282  and  _284
REMARK  120  A    between atoms: _284  and  _285
REMARK  121  A    between atoms: _284  and  _287
REMARK  122  A    between atoms: _287  and  _288
REMARK  123  A    between atoms: _291  and  _293
REMARK  124  A    between atoms: _293  and  _294
REMARK  125  A    between atoms: _293  and  _296
REMARK  126  A    between atoms: _296  and  _297
REMARK  127  A    between atoms: _300  and  _302
REMARK  128  A    between atoms: _302  and  _303
REMARK  129  A    between atoms: _302  and  _305
REMARK  130  A    between atoms: _305  and  _306
REMARK  131  A    between atoms: _309  and  _311
REMARK  132  A    between atoms: _311  and  _312
REMARK  133  A    between atoms: _311  and  _314
REMARK  134  A    between atoms: _314  and  _315
REMARK  135  A    between atoms: _320  and  _321
REMARK  136  A    between atoms: _323  and  _325
REMARK  137  A    between atoms: _325  and  _326
REMARK  138  A    between atoms: _325  and  _328
REMARK  139  A    between atoms: _328  and  _329
REMARK  140  A    between atoms: _332  and  _334
REMARK  141  A    between atoms: _334  and  _335
REMARK  142  A    between atoms: _334  and  _337
REMARK  143  A    between atoms: _340  and  _342
REMARK  144  A    between atoms: _342  and  _343
REMARK  145  A    between atoms: _342  and  _345
REMARK  146  A    between atoms: _345  and  _346
REMARK  147  A    between atoms: _349  and  _351
REMARK  148  A    between atoms: _351  and  _352
REMARK  149  A    between atoms: _351  and  _354
REMARK  150  A    between atoms: _354  and  _355
REMARK  151  A    between atoms: _360  and  _362
REMARK  152  A    between atoms: _362  and  _363
REMARK  153  A    between atoms: _362  and  _365
REMARK  154  A    between atoms: _365  and  _366
REMARK  155  A    between atoms: _369  and  _371
REMARK  156  A    between atoms: _371  and  _372
REMARK  157  A    between atoms: _371  and  _374
REMARK  158  A    between atoms: _374  and  _375
REMARK  159  A    between atoms: _375  and  _376
REMARK  160  A    between atoms: _378  and  _380
REMARK  161  A    between atoms: _380  and  _381
REMARK  162  A    between atoms: _383  and  _385
REMARK  163  A    between atoms: _385  and  _386
REMARK  164  A    between atoms: _389  and  _391
REMARK  165  A    between atoms: _391  and  _392
REMARK  166  A    between atoms: _391  and  _394
REMARK  167  A    between atoms: _394  and  _395
REMARK  168  A    between atoms: _398  and  _400
REMARK  169  A    between atoms: _400  and  _401
REMARK  170  A    between atoms: _400  and  _403
REMARK  171  A    between atoms: _403  and  _404
REMARK  172  A    between atoms: _407  and  _409
REMARK  173  A    between atoms: _409  and  _410
REMARK  174  A    between atoms: _409  and  _412
REMARK  175  A    between atoms: _412  and  _413
REMARK  176  A    between atoms: _418  and  _420
REMARK  177  A    between atoms: _420  and  _421
REMARK  178  A    between atoms: _420  and  _423
REMARK  179  A    between atoms: _423  and  _424
REMARK  180  A    between atoms: _429  and  _431
REMARK  181  A    between atoms: _431  and  _432
REMARK  182  A    between atoms: _431  and  _434
REMARK  183  A    between atoms: _434  and  _435
REMARK  184  A    between atoms: _438  and  _440
REMARK  185  A    between atoms: _440  and  _441
REMARK  186  A    between atoms: _440  and  _443
REMARK  187  A    between atoms: _443  and  _444
REMARK  188  A    between atoms: _447  and  _449
REMARK  189  A    between atoms: _449  and  _450
REMARK  190  A    between atoms: _449  and  _452
REMARK  191  A    between atoms: _452  and  _453
REMARK  192  A    between atoms: _459  and  _460
REMARK  193  A    between atoms: _465  and  _467
REMARK  194  A    between atoms: _467  and  _468
REMARK  195  A    between atoms: _467  and  _470
REMARK  196  A    between atoms: _470  and  _471
REMARK  197  A    between atoms: _473  and  _475
REMARK  198  A    between atoms: _475  and  _476
REMARK  199  A    between atoms: _475  and  _478
REMARK  200  A    between atoms: _478  and  _479
REMARK  201  A    between atoms: _484  and  _486
REMARK  202  A    between atoms: _486  and  _487
REMARK  203  A    between atoms: _486  and  _489
REMARK  204  A    between atoms: _489  and  _490
REMARK  205  A    between atoms: _493  and  _495
REMARK  206  A    between atoms: _495  and  _496
REMARK  207  A    between atoms: _499  and  _501
REMARK  208  A    between atoms: _501  and  _502
REMARK  209  A    between atoms: _501  and  _504
REMARK  210  A    between atoms: _507  and  _509
REMARK  211  A    between atoms: _509  and  _510
REMARK  212  A    between atoms: _509  and  _512
REMARK  213  A    between atoms: _512  and  _513
REMARK  214  A    between atoms: _518  and  _520
REMARK  215  A    between atoms: _520  and  _521
REMARK  216  A    between atoms: _520  and  _523
REMARK  217  A    between atoms: _523  and  _524
REMARK  218  A    between atoms: _524  and  _525
REMARK  219  A    between atoms: _525  and  _526
REMARK  220  A    between atoms: _526  and  _527
REMARK  221  A    between atoms: _531  and  _533
REMARK  222  A    between atoms: _533  and  _534
REMARK  223  A    between atoms: _533  and  _536
REMARK  224  A    between atoms: _536  and  _537
REMARK  225  A    between atoms: _540  and  _542
REMARK  226  A    between atoms: _542  and  _543
REMARK  227  A    between atoms: _542  and  _545
REMARK  228  A    between atoms: _545  and  _546
REMARK  229  A    between atoms: _549  and  _551
REMARK  230  A    between atoms: _551  and  _552
REMARK  231  A    between atoms: _551  and  _554
REMARK  232  A    between atoms: _554  and  _555
REMARK  233  A    between atoms: _558  and  _560
REMARK  234  A    between atoms: _560  and  _561
REMARK  235  A    between atoms: _560  and  _563
REMARK  236  A    between atoms: _563  and  _564
REMARK  237  A    between atoms: _570  and  _572
REMARK  238  A    between atoms: _572  and  _573
REMARK  239  A    between atoms: _575  and  _577
REMARK  240  A    between atoms: _577  and  _578
REMARK  241  A    between atoms: _577  and  _580
REMARK  242  A    between atoms: _580  and  _581
REMARK  243  A    between atoms: _584  and  _586
REMARK  244  A    between atoms: _586  and  _587
REMARK  245  A    between atoms: _592  and  _593
REMARK  246  A    between atoms: _592  and  _595
REMARK  247  A    between atoms: _595  and  _596
REMARK  248  A    between atoms: _596  and  _597
REMARK  249  A    between atoms: _597  and  _598
REMARK                            x       y       z     vdW  Elec       q    Type
REMARK                         _______ _______ _______ _____ _____    ______ ____
ROOT
ATOM      1  C   LEU A   6      44.764  39.089  32.523  0.00  0.00    +0.241 C 
ATOM      2  N   MET A   7      45.577  38.257  33.161  0.00  0.00    -0.297 N 
ATOM      3  H   MET A   7      45.422  37.230  33.113  0.00  0.00    +0.150 HD
ATOM      4  O   LEU A   6      44.865  40.305  32.612  0.00  0.00    -0.273 OA
ENDROOT
BRANCH   1   5
ATOM      5  CA  LEU A   6      43.689  38.474  31.664  0.00  0.00    +0.149 C 
BRANCH   5   8
ATOM      6  C   HIS A   5      41.617  38.190  32.850  0.00  0.00    +0.241 C 
ATOM      7  O   HIS A   5      41.803  36.983  33.008  0.00  0.00    -0.273 OA
ATOM      8  N   LEU A   6      42.424  38.965  32.158  0.00  0.00    -0.297 N 
ATOM      9  H   LEU A   6      42.146  39.948  31.963  0.00  0.00    +0.150 HD
BRANCH   6  10
ATOM     10  CA  HIS A   5      40.440  38.896  33.464  0.00  0.00    +0.155 C 
BRANCH  10  12
ATOM     11  C   THR A   4      38.828  37.472  32.376  0.00  0.00    +0.243 C 
ATOM     12  N   HIS A   5      39.307  37.987  33.516  0.00  0.00    -0.297 N 
ATOM     13  H   HIS A   5      38.873  37.739  34.428  0.00  0.00    +0.150 HD
ATOM     14  O   THR A   4      39.225  37.842  31.246  0.00  0.00    -0.273 OA
BRANCH  11  15
ATOM     15  CA  THR A   4      37.811  36.329  32.506  0.00  0.00    +0.176 C 
BRANCH  15  18
ATOM     16  C   VAL A   3      35.983  35.799  30.950  0.00  0.00    +0.241 C 
ATOM     17  O   VAL A   3      35.141  35.865  31.835  0.00  0.00    -0.273 OA
ATOM     18  N   THR A   4      37.288  35.969  31.179  0.00  0.00    -0.295 N 
ATOM     19  H   THR A   4      37.957  35.843  30.393  0.00  0.00    +0.150 HD
BRANCH  16  20
ATOM     20  CA  VAL A   3      35.548  35.482  29.507  0.00  0.00    +0.149 C 
BRANCH  20  22
ATOM     21  C   LEU A   2      35.101  33.167  28.860  0.00  0.00    +0.241 C 
ATOM     22  N   VAL A   3      34.695  34.292  29.450  0.00  0.00    -0.297 N 
ATOM     23  H   VAL A   3      33.749  34.326  29.881  0.00  0.00    +0.150 HD
ATOM     24  O   LEU A   2      36.223  33.040  28.367  0.00  0.00    -0.273 OA
BRANCH  21  25
ATOM     25  CA  LEU A   2      34.120  31.981  28.866  0.00  0.00    +0.149 C 
BRANCH  25  27
ATOM     26  C   TYR A   1      32.870  31.503  26.823  0.00  0.00    +0.239 C 
ATOM     27  N   LEU A   2      33.978  31.425  27.533  0.00  0.00    -0.297 N 
ATOM     28  H   LEU A   2      34.796  30.938  27.115  0.00  0.00    +0.150 HD
ATOM     29  O   TYR A   1      31.831  32.052  27.202  0.00  0.00    -0.274 OA
BRANCH  26  30
ATOM     30  CA  TYR A   1      32.943  30.874  25.454  0.00  0.00    +0.149 C 
BRANCH  30  31
ATOM     31  N   TYR A   1      31.772  30.014  25.367  0.00  0.00    -0.238 NA
ATOM     32  H   TYR A   1      30.830  30.435  25.495  0.00  0.00    +0.142 HD
ENDBRANCH  30  31
BRANCH  30  33
ATOM     33  CB  TYR A   1      32.912  32.009  24.410  0.00  0.00    +0.053 C 
BRANCH  33  34
ATOM     34  CG  TYR A   1      33.006  31.595  22.959  0.00  0.00    -0.020 A 
ATOM     35  CD2 TYR A   1      31.901  31.074  22.286  0.00  0.00    -0.001 A 
ATOM     36  CE2 TYR A   1      31.975  30.714  20.912  0.00  0.00    +0.036 A 
ATOM     37  CZ  TYR A   1      33.174  30.884  20.220  0.00  0.00    +0.134 A 
ATOM     38  CE1 TYR A   1      34.291  31.389  20.874  0.00  0.00    +0.036 A 
ATOM     39  CD1 TYR A   1      34.196  31.762  22.245  0.00  0.00    -0.001 A 
BRANCH  37  40
ATOM     40  OH  TYR A   1      33.260  30.538  18.879  0.00  0.00    -0.506 OA
ATOM     41  HH  TYR A   1      32.383  30.198  18.570  0.00  0.00    +0.292 HD
ENDBRANCH  37  40
ENDBRANCH  33  34
ENDBRANCH  30  33
ENDBRANCH  26  30
ENDBRANCH  25  27
BRANCH  25  42
ATOM     42  CB  LEU A   2      34.676  30.871  29.781  0.00  0.00    +0.029 C 
BRANCH  42  43
ATOM     43  CG  LEU A   2      33.799  29.599  29.831  0.00  0.00    +0.002 C 
ATOM     44  CD2 LEU A   2      32.520  29.872  30.604  0.00  0.00    +0.000 C 
ATOM     45  CD1 LEU A   2      34.543  28.400  30.379  0.00  0.00    +0.000 C 
ENDBRANCH  42  43
ENDBRANCH  25  42
ENDBRANCH  21  25
ENDBRANCH  20  22
BRANCH  20  46
ATOM     46  CB  VAL A   3      34.832  36.709  28.846  0.00  0.00    +0.027 C 
ATOM     47  CG2 VAL A   3      35.753  37.923  28.800  0.00  0.00    +0.002 C 
ATOM     48  CG1 VAL A   3      34.328  36.350  27.431  0.00  0.00    +0.002 C 
ENDBRANCH  20  46
ENDBRANCH  16  20
ENDBRANCH  15  18
BRANCH  15  49
ATOM     49  CB  THR A   4      38.549  35.142  33.194  0.00  0.00    +0.137 C 
ATOM     50  CG2 THR A   4      37.729  33.842  33.181  0.00  0.00    +0.034 C 
BRANCH  49  51
ATOM     51  OG1 THR A   4      39.808  34.901  32.541  0.00  0.00    -0.382 OA
ATOM     52  HG1 THR A   4      40.370  35.714  32.601  0.00  0.00    +0.210 HD
ENDBRANCH  49  51
ENDBRANCH  15  49
ENDBRANCH  11  15
ENDBRANCH  10  12
BRANCH  10  53
ATOM     53  CB  HIS A   5      40.851  39.390  34.856  0.00  0.00    +0.076 C 
BRANCH  53  54
ATOM     54  CG  HIS A   5      39.861  40.328  35.464  0.00  0.00    +0.082 A 
ATOM     55  CD2 HIS A   5      38.938  40.141  36.441  0.00  0.00    +0.115 A 
ATOM     56  NE2 HIS A   5      38.264  41.322  36.588  0.00  0.00    -0.221 NA
ATOM     57  CE1 HIS A   5      38.751  42.204  35.729  0.00  0.00    +0.199 A 
ATOM     58  ND1 HIS A   5      39.726  41.633  35.044  0.00  0.00    -0.227 NA
ENDBRANCH  53  54
ENDBRANCH  10  53
ENDBRANCH   6  10
ENDBRANCH   5   8
BRANCH   5  59
ATOM     59  CB  LEU A   6      43.886  38.899  30.209  0.00  0.00    +0.029 C 
BRANCH  59  60
ATOM     60  CG  LEU A   6      45.235  38.481  29.611  0.00  0.00    +0.002 C 
ATOM     61  CD2 LEU A   6      45.301  36.990  29.468  0.00  0.00    +0.000 C 
ATOM     62  CD1 LEU A   6      45.507  39.180  28.305  0.00  0.00    +0.000 C 
ENDBRANCH  59  60
ENDBRANCH   5  59
ENDBRANCH   1   5
BRANCH   2  63
ATOM     63  CA  MET A   7      46.690  38.800  33.931  0.00  0.00    +0.149 C 
BRANCH  63  64
ATOM     64  C   MET A   7      47.930  38.729  33.032  0.00  0.00    +0.241 C 
ATOM     65  N   GLY A   8      48.921  39.553  33.284  0.00  0.00    -0.295 N 
ATOM     66  H   GLY A   8      48.896  40.168  34.123  0.00  0.00    +0.150 HD
ATOM     67  O   MET A   7      47.975  37.943  32.086  0.00  0.00    -0.273 OA
BRANCH  65  68
ATOM     68  CA  GLY A   8      50.063  39.594  32.367  0.00  0.00    +0.176 C 
BRANCH  68  69
ATOM     69  C   GLY A   8      50.947  38.361  32.351  0.00  0.00    +0.243 C 
ATOM     70  N   ALA A   9      50.938  37.596  33.444  0.00  0.00    -0.297 N 
ATOM     71  H   ALA A   9      50.282  37.826  34.217  0.00  0.00    +0.150 HD
ATOM     72  O   GLY A   8      51.661  38.128  31.360  0.00  0.00    -0.273 OA
BRANCH  70  73
ATOM     73  CA  ALA A   9      51.831  36.435  33.585  0.00  0.00    +0.149 C 
ATOM     74  CB  ALA A   9      53.233  36.900  34.063  0.00  0.00    +0.031 C 
BRANCH  73  75
ATOM     75  C   ALA A   9      51.308  35.359  34.555  0.00  0.00    +0.241 C 
ATOM     76  O   ALA A   9      50.339  35.580  35.279  0.00  0.00    -0.273 OA
ATOM     77  N   ASP A  10      51.975  34.204  34.584  0.00  0.00    -0.297 N 
ATOM     78  H   ASP A  10      52.658  33.980  33.832  0.00  0.00    +0.150 HD
BRANCH  77  79
ATOM     79  CA  ASP A  10      51.749  33.261  35.662  0.00  0.00    +0.160 C 
BRANCH  79  80
ATOM     80  C   ASP A  10      52.958  33.277  36.600  0.00  0.00    +0.241 C 
ATOM     81  N   LEU A  11      52.798  32.688  37.768  0.00  0.00    -0.297 N 
ATOM     82  H   LEU A  11      51.895  32.217  37.977  0.00  0.00    +0.150 HD
ATOM     83  O   ASP A  10      54.005  33.840  36.277  0.00  0.00    -0.273 OA
BRANCH  81  84
ATOM     84  CA  LEU A  11      53.839  32.678  38.762  0.00  0.00    +0.149 C 
BRANCH  84  85
ATOM     85  C   LEU A  11      55.076  31.875  38.340  0.00  0.00    +0.241 C 
ATOM     86  O   LEU A  11      56.173  32.127  38.843  0.00  0.00    -0.273 OA
ATOM     87  N   ASN A  12      54.873  30.885  37.472  0.00  0.00    -0.297 N 
ATOM     88  H   ASN A  12      53.899  30.664  37.183  0.00  0.00    +0.150 HD
BRANCH  87  89
ATOM     89  CA  ASN A  12      55.962  30.104  36.916  0.00  0.00    +0.158 C 
BRANCH  89  90
ATOM     90  C   ASN A  12      56.974  31.007  36.212  0.00  0.00    +0.241 C 
ATOM     91  O   ASN A  12      58.177  30.863  36.397  0.00  0.00    -0.273 OA
ATOM     92  N   ASN A  13      56.482  31.975  35.451  0.00  0.00    -0.298 N 
ATOM     93  H   ASN A  13      55.456  32.031  35.290  0.00  0.00    +0.150 HD
BRANCH  92  94
ATOM     94  CA  ASN A  13      57.362  32.962  34.838  0.00  0.00    +0.146 C 
BRANCH  94  95
ATOM     95  C   ASN A  13      57.934  34.022  35.803  0.00  0.00    +0.227 C 
ATOM     96  O   ASN A  13      59.086  34.438  35.672  0.00  0.00    -0.286 OA
ENDBRANCH  94  95
BRANCH  94  97
ATOM     97  CB  ASN A  13      56.702  33.545  33.586  0.00  0.00    +0.112 C 
BRANCH  97  98
ATOM     98  CG  ASN A  13      56.671  32.524  32.416  0.00  0.00    +0.222 C 
ATOM     99  ND2 ASN A  13      55.537  31.840  32.245  0.00  0.00    -0.329 N 
ATOM    100 HD21 ASN A  13      54.728  32.009  32.876  0.00  0.00    +0.145 HD
ATOM    101 HD22 ASN A  13      55.463  31.139  31.481  0.00  0.00    +0.145 HD
ATOM    102  OD1 ASN A  13      57.659  32.357  31.690  0.00  0.00    -0.275 OA
ENDBRANCH  97  98
ENDBRANCH  94  97
ENDBRANCH  92  94
ENDBRANCH  89  90
BRANCH  89 103
ATOM    103  CB  ASN A  12      55.404  29.049  35.971  0.00  0.00    +0.114 C 
BRANCH 103 104
ATOM    104  CG  ASN A  12      56.235  27.811  35.936  0.00  0.00    +0.222 C 
ATOM    105  OD1 ASN A  12      56.598  27.265  36.972  0.00  0.00    -0.275 OA
ATOM    106  ND2 ASN A  12      56.549  27.352  34.739  0.00  0.00    -0.329 N 
ATOM    107 HD21 ASN A  12      57.128  26.493  34.647  0.00  0.00    +0.145 HD
ATOM    108 HD22 ASN A  12      56.218  27.850  33.888  0.00  0.00    +0.145 HD
ENDBRANCH 103 104
ENDBRANCH  89 103
ENDBRANCH  87  89
ENDBRANCH  84  85
BRANCH  84 109
ATOM    109  CB  LEU A  11      53.298  32.093  40.048  0.00  0.00    +0.029 C 
BRANCH 109 110
ATOM    110  CG  LEU A  11      54.056  32.465  41.306  0.00  0.00    +0.002 C 
ATOM    111  CD2 LEU A  11      53.311  32.029  42.561  0.00  0.00    +0.000 C 
ATOM    112  CD1 LEU A  11      54.369  33.968  41.318  0.00  0.00    +0.000 C 
ENDBRANCH 109 110
ENDBRANCH  84 109
ENDBRANCH  81  84
ENDBRANCH  79  80
BRANCH  79 113
ATOM    113  CB  ASP A  10      51.364  31.847  35.151  0.00  0.00    +0.143 C 
BRANCH 113 114
ATOM    114  CG  ASP A  10      52.497  31.150  34.374  0.00  0.00    +0.367 C 
ATOM    115  OD2 ASP A  10      53.593  30.965  34.916  0.00  0.00    -0.246 OA
ATOM    116  OD1 ASP A  10      52.285  30.761  33.220  0.00  0.00    -0.246 OA
ENDBRANCH 113 114
ENDBRANCH  79 113
ENDBRANCH  77  79
ENDBRANCH  73  75
ENDBRANCH  70  73
ENDBRANCH  68  69
ENDBRANCH  65  68
ENDBRANCH  63  64
BRANCH  63 117
ATOM    117  CB  MET A   7      46.834  38.097  35.295  0.00  0.00    +0.041 C 
BRANCH 117 118
ATOM    118  CG  MET A   7      45.463  37.822  35.984  0.00  0.00    +0.060 C 
BRANCH 118 119
ATOM    119  SD  MET A   7      44.636  39.150  36.909  0.00  0.00    -0.139 S 
ATOM    120  CE  MET A   7      45.651  39.346  38.399  0.00  0.00    +0.069 C 
ENDBRANCH 118 119
ENDBRANCH 117 118
ENDBRANCH  63 117
ENDBRANCH   2  63
TORSDOF 49
REMARK  Name = ../refined-set-2016/3d7z/3d7z_pocket.pdb
REMARK  249 active torsions:
REMARK  status: ('A' for Active; 'I' for Inactive)
REMARK    1  A    between atoms: _1  and  _3
REMARK    2  A    between atoms: _3  and  _4
REMARK    3  A    between atoms: _3  and  _6
REMARK    4  A    between atoms: _9  and  _11
REMARK    5  A    between atoms: _11  and  _12
REMARK    6  A    between atoms: _14  and  _16
REMARK    7  A    between atoms: _16  and  _17
REMARK    8  A    between atoms: _16  and  _19
REMARK    9  A    between atoms: _19  and  _20
REMARK   10  A    between atoms: _22  and  _24
REMARK   11  A    between atoms: _24  and  _25
REMARK   12  A    between atoms: _28  and  _30
REMARK   13  A    between atoms: _30  and  _31
REMARK   14  A    between atoms: _30  and  _33
REMARK   15  A    between atoms: _33  and  _34
REMARK   16  A    between atoms: _39  and  _40
REMARK   17  A    between atoms: _42  and  _44
REMARK   18  A    between atoms: _44  and  _45
REMARK   19  A    between atoms: _47  and  _49
REMARK   20  A    between atoms: _49  and  _50
REMARK   21  A    between atoms: _49  and  _52
REMARK   22  A    between atoms: _52  and  _53
REMARK   23  A    between atoms: _55  and  _57
REMARK   24  A    between atoms: _57  and  _58
REMARK   25  A    between atoms: _57  and  _60
REMARK   26  A    between atoms: _63  and  _65
REMARK   27  A    between atoms: _65  and  _66
REMARK   28  A    between atoms: _65  and  _68
REMARK   29  A    between atoms: _70  and  _72
REMARK   30  A    between atoms: _72  and  _73
REMARK   31  A    between atoms: _76  and  _78
REMARK   32  A    between atoms: _78  and  _79
REMARK   33  A    between atoms: _78  and  _81
REMARK   34  A    between atoms: _81  and  _82
REMARK   35  A    between atoms: _82  and  _83
REMARK   36  A    between atoms: _83  and  _84
REMARK   37  A    between atoms: _93  and  _95
REMARK   38  A    between atoms: _95  and  _96
REMARK   39  A    between atoms: _95  and  _98
REMARK   40  A    between atoms: _101  and  _103
REMARK   41  A    between atoms: _103  and  _104
REMARK   42  A    between atoms: _107  and  _109
REMARK   43  A    between atoms: _109  and  _110
REMARK   44  A    between atoms: _109  and  _112
REMARK   45  A    between atoms: _115  and  _117
REMARK   46  A    between atoms: _117  and  _118
REMARK   47  A    between atoms: _117  and  _120
REMARK   48  A    between atoms: _120  and  _121
REMARK   49  A    between atoms: _121  and  _122
REMARK   50  A    between atoms: _122  and  _123
REMARK   51  A    between atoms: _123  and  _124
REMARK   52  A    between atoms: _128  and  _130
REMARK   53  A    between atoms: _130  and  _131
REMARK   54  A    between atoms: _130  and  _133
REMARK   55  A    between atoms: _133  and  _134
REMARK   56  A    between atoms: _134  and  _135
REMARK   57  A    between atoms: _135  and  _136
REMARK   58  A    between atoms: _136  and  _137
REMARK   59  A    between atoms: _141  and  _143
REMARK   60  A    between atoms: _143  and  _144
REMARK   61  A    between atoms: _143  and  _146
REMARK   62  A    between atoms: _146  and  _147
REMARK   63  A    between atoms: _150  and  _152
REMARK   64  A    between atoms: _152  and  _153
REMARK   65  A    between atoms: _152  and  _155
REMARK   66  A    between atoms: _155  and  _156
REMARK   67  A    between atoms: _156  and  _157
REMARK   68  A    between atoms: _157  and  _158
REMARK   69  A    between atoms: _167  and  _169
REMARK   70  A    between atoms: _169  and  _170
REMARK   71  A    between atoms: _169  and  _172
REMARK   72  A    between atoms: _172  and  _173
REMARK   73  A    between atoms: _173  and  _174
REMARK   74  A    between atoms: _174  and  _175
REMARK   75  A    between atoms: _184  and  _186
REMARK   76  A    between atoms: _186  and  _187
REMARK   77  A    between atoms: _186  and  _189
REMARK   78  A    between atoms: _189  and  _190
REMARK   79  A    between atoms: _190  and  _191
REMARK   80  A    between atoms: _194  and  _196
REMARK   81  A    between atoms: _196  and  _197
REMARK   82  A    between atoms: _196  and  _199
REMARK   83  A    between atoms: _199  and  _200
REMARK   84  A    between atoms: _203  and  _205
REMARK   85  A    between atoms: _205  and  _206
REMARK   86  A    between atoms: _205  and  _208
REMARK   87  A    between atoms: _208  and  _209
REMARK   88  A    between atoms: _209  and  _210
REMARK   89  A    between atoms: _210  and  _211
REMARK   90  A    between atoms: _220  and  _222
REMARK   91  A    between atoms: _222  and  _223
REMARK   92  A    between atoms: _222  and  _225
REMARK   93  A    between atoms: _225  and  _226
REMARK   94  A    between atoms: _229  and  _231
REMARK   95  A    between atoms: _231  and  _232
REMARK   96  A    between atoms: _231  and  _234
REMARK   97  A    between atoms: _234  and  _235
REMARK   98  A    between atoms: _238  and  _240
REMARK   99  A    between atoms: _240  and  _241
REMARK  100  A    between atoms: _240  and  _243
REMARK  101  A    between atoms: _243  and  _244
REMARK  102  A    between atoms: _244  and  _245
REMARK  103  A    between atoms: _245  and  _246
REMARK  104  A    between atoms: _246  and  _247
REMARK  105  A    between atoms: _251  and  _253
REMARK  106  A    between atoms: _253  and  _254
REMARK  107  A    between atoms: _253  and  _256
REMARK  108  A    between atoms: _256  and  _257
REMARK  109  A    between atoms: _257  and  _258
REMARK  110  A    between atoms: _260  and  _262
REMARK  111  A    between atoms: _262  and  _263
REMARK  112  A    between atoms: _262  and  _265
REMARK  113  A    between atoms: _268  and  _270
REMARK  114  A    between atoms: _270  and  _271
REMARK  115  A    between atoms: _270  and  _273
REMARK  116  A    between atoms: _273  and  _274
REMARK  117  A    between atoms: _277  and  _279
REMARK  118  A    between atoms: _279  and  _280
REMARK  119  A    between atoms: _282  and  _284
REMARK  120  A    between atoms: _284  and  _285
REMARK  121  A    between atoms: _284  and  _287
REMARK  122  A    between atoms: _287  and  _288
REMARK  123  A    between atoms: _291  and  _293
REMARK  124  A    between atoms: _293  and  _294
REMARK  125  A    between atoms: _293  and  _296
REMARK  126  A    between atoms: _296  and  _297
REMARK  127  A    between atoms: _300  and  _302
REMARK  128  A    between atoms: _302  and  _303
REMARK  129  A    between atoms: _302  and  _305
REMARK  130  A    between atoms: _305  and  _306
REMARK  131  A    between atoms: _309  and  _311
REMARK  132  A    between atoms: _311  and  _312
REMARK  133  A    between atoms: _311  and  _314
REMARK  134  A    between atoms: _314  and  _315
REMARK  135  A    between atoms: _320  and  _321
REMARK  136  A    between atoms: _323  and  _325
REMARK  137  A    between atoms: _325  and  _326
REMARK  138  A    between atoms: _325  and  _328
REMARK  139  A    between atoms: _328  and  _329
REMARK  140  A    between atoms: _332  and  _334
REMARK  141  A    between atoms: _334  and  _335
REMARK  142  A    between atoms: _334  and  _337
REMARK  143  A    between atoms: _340  and  _342
REMARK  144  A    between atoms: _342  and  _343
REMARK  145  A    between atoms: _342  and  _345
REMARK  146  A    between atoms: _345  and  _346
REMARK  147  A    between atoms: _349  and  _351
REMARK  148  A    between atoms: _351  and  _352
REMARK  149  A    between atoms: _351  and  _354
REMARK  150  A    between atoms: _354  and  _355
REMARK  151  A    between atoms: _360  and  _362
REMARK  152  A    between atoms: _362  and  _363
REMARK  153  A    between atoms: _362  and  _365
REMARK  154  A    between atoms: _365  and  _366
REMARK  155  A    between atoms: _369  and  _371
REMARK  156  A    between atoms: _371  and  _372
REMARK  157  A    between atoms: _371  and  _374
REMARK  158  A    between atoms: _374  and  _375
REMARK  159  A    between atoms: _375  and  _376
REMARK  160  A    between atoms: _378  and  _380
REMARK  161  A    between atoms: _380  and  _381
REMARK  162  A    between atoms: _383  and  _385
REMARK  163  A    between atoms: _385  and  _386
REMARK  164  A    between atoms: _389  and  _391
REMARK  165  A    between atoms: _391  and  _392
REMARK  166  A    between atoms: _391  and  _394
REMARK  167  A    between atoms: _394  and  _395
REMARK  168  A    between atoms: _398  and  _400
REMARK  169  A    between atoms: _400  and  _401
REMARK  170  A    between atoms: _400  and  _403
REMARK  171  A    between atoms: _403  and  _404
REMARK  172  A    between atoms: _407  and  _409
REMARK  173  A    between atoms: _409  and  _410
REMARK  174  A    between atoms: _409  and  _412
REMARK  175  A    between atoms: _412  and  _413
REMARK  176  A    between atoms: _418  and  _420
REMARK  177  A    between atoms: _420  and  _421
REMARK  178  A    between atoms: _420  and  _423
REMARK  179  A    between atoms: _423  and  _424
REMARK  180  A    between atoms: _429  and  _431
REMARK  181  A    between atoms: _431  and  _432
REMARK  182  A    between atoms: _431  and  _434
REMARK  183  A    between atoms: _434  and  _435
REMARK  184  A    between atoms: _438  and  _440
REMARK  185  A    between atoms: _440  and  _441
REMARK  186  A    between atoms: _440  and  _443
REMARK  187  A    between atoms: _443  and  _444
REMARK  188  A    between atoms: _447  and  _449
REMARK  189  A    between atoms: _449  and  _450
REMARK  190  A    between atoms: _449  and  _452
REMARK  191  A    between atoms: _452  and  _453
REMARK  192  A    between atoms: _459  and  _460
REMARK  193  A    between atoms: _465  and  _467
REMARK  194  A    between atoms: _467  and  _468
REMARK  195  A    between atoms: _467  and  _470
REMARK  196  A    between atoms: _470  and  _471
REMARK  197  A    between atoms: _473  and  _475
REMARK  198  A    between atoms: _475  and  _476
REMARK  199  A    between atoms: _475  and  _478
REMARK  200  A    between atoms: _478  and  _479
REMARK  201  A    between atoms: _484  and  _486
REMARK  202  A    between atoms: _486  and  _487
REMARK  203  A    between atoms: _486  and  _489
REMARK  204  A    between atoms: _489  and  _490
REMARK  205  A    between atoms: _493  and  _495
REMARK  206  A    between atoms: _495  and  _496
REMARK  207  A    between atoms: _499  and  _501
REMARK  208  A    between atoms: _501  and  _502
REMARK  209  A    between atoms: _501  and  _504
REMARK  210  A    between atoms: _507  and  _509
REMARK  211  A    between atoms: _509  and  _510
REMARK  212  A    between atoms: _509  and  _512
REMARK  213  A    between atoms: _512  and  _513
REMARK  214  A    between atoms: _518  and  _520
REMARK  215  A    between atoms: _520  and  _521
REMARK  216  A    between atoms: _520  and  _523
REMARK  217  A    between atoms: _523  and  _524
REMARK  218  A    between atoms: _524  and  _525
REMARK  219  A    between atoms: _525  and  _526
REMARK  220  A    between atoms: _526  and  _527
REMARK  221  A    between atoms: _531  and  _533
REMARK  222  A    between atoms: _533  and  _534
REMARK  223  A    between atoms: _533  and  _536
REMARK  224  A    between atoms: _536  and  _537
REMARK  225  A    between atoms: _540  and  _542
REMARK  226  A    between atoms: _542  and  _543
REMARK  227  A    between atoms: _542  and  _545
REMARK  228  A    between atoms: _545  and  _546
REMARK  229  A    between atoms: _549  and  _551
REMARK  230  A    between atoms: _551  and  _552
REMARK  231  A    between atoms: _551  and  _554
REMARK  232  A    between atoms: _554  and  _555
REMARK  233  A    between atoms: _558  and  _560
REMARK  234  A    between atoms: _560  and  _561
REMARK  235  A    between atoms: _560  and  _563
REMARK  236  A    between atoms: _563  and  _564
REMARK  237  A    between atoms: _570  and  _572
REMARK  238  A    between atoms: _572  and  _573
REMARK  239  A    between atoms: _575  and  _577
REMARK  240  A    between atoms: _577  and  _578
REMARK  241  A    between atoms: _577  and  _580
REMARK  242  A    between atoms: _580  and  _581
REMARK  243  A    between atoms: _584  and  _586
REMARK  244  A    between atoms: _586  and  _587
REMARK  245  A    between atoms: _592  and  _593
REMARK  246  A    between atoms: _592  and  _595
REMARK  247  A    between atoms: _595  and  _596
REMARK  248  A    between atoms: _596  and  _597
REMARK  249  A    between atoms: _597  and  _598
REMARK                            x       y       z     vdW  Elec       q    Type
REMARK                         _______ _______ _______ _____ _____    ______ ____
ROOT
ATOM      1  CA  ILE A   1      37.513  28.527  47.662  0.00  0.00    +0.133 C 
ENDROOT
BRANCH   1   2
ATOM      2  N   ILE A   1      37.813  29.763  48.351  0.00  0.00    -0.239 NA
ATOM      3  H   ILE A   1      38.726  30.235  48.192  0.00  0.00    +0.142 HD
ENDBRANCH   1   2
BRANCH   1   4
ATOM      4  C   ILE A   1      37.111  27.369  48.655  0.00  0.00    +0.224 C 
ATOM      5  O   ILE A   1      36.075  26.742  48.497  0.00  0.00    -0.287 OA
ENDBRANCH   1   4
BRANCH   1   6
ATOM      6  CB  ILE A   1      38.676  28.127  46.707  0.00  0.00    +0.023 C 
ATOM      7  CG2 ILE A   1      38.412  26.732  46.090  0.00  0.00    +0.002 C 
BRANCH   6   8
ATOM      8  CG1 ILE A   1      38.848  29.187  45.579  0.00  0.00    +0.002 C 
ATOM      9  CD1 ILE A   1      40.198  29.066  44.724  0.00  0.00    +0.000 C 
ENDBRANCH   6   8
ENDBRANCH   1   6
TORSDOF 4
REMARK  Name = ../refined-set-2016/3d7z/3d7z_pocket.pdb
REMARK  249 active torsions:
REMARK  status: ('A' for Active; 'I' for Inactive)
REMARK    1  A    between atoms: _1  and  _3
REMARK    2  A    between atoms: _3  and  _4
REMARK    3  A    between atoms: _3  and  _6
REMARK    4  A    between atoms: _9  and  _11
REMARK    5  A    between atoms: _11  and  _12
REMARK    6  A    between atoms: _14  and  _16
REMARK    7  A    between atoms: _16  and  _17
REMARK    8  A    between atoms: _16  and  _19
REMARK    9  A    between atoms: _19  and  _20
REMARK   10  A    between atoms: _22  and  _24
REMARK   11  A    between atoms: _24  and  _25
REMARK   12  A    between atoms: _28  and  _30
REMARK   13  A    between atoms: _30  and  _31
REMARK   14  A    between atoms: _30  and  _33
REMARK   15  A    between atoms: _33  and  _34
REMARK   16  A    between atoms: _39  and  _40
REMARK   17  A    between atoms: _42  and  _44
REMARK   18  A    between atoms: _44  and  _45
REMARK   19  A    between atoms: _47  and  _49
REMARK   20  A    between atoms: _49  and  _50
REMARK   21  A    between atoms: _49  and  _52
REMARK   22  A    between atoms: _52  and  _53
REMARK   23  A    between atoms: _55  and  _57
REMARK   24  A    between atoms: _57  and  _58
REMARK   25  A    between atoms: _57  and  _60
REMARK   26  A    between atoms: _63  and  _65
REMARK   27  A    between atoms: _65  and  _66
REMARK   28  A    between atoms: _65  and  _68
REMARK   29  A    between atoms: _70  and  _72
REMARK   30  A    between atoms: _72  and  _73
REMARK   31  A    between atoms: _76  and  _78
REMARK   32  A    between atoms: _78  and  _79
REMARK   33  A    between atoms: _78  and  _81
REMARK   34  A    between atoms: _81  and  _82
REMARK   35  A    between atoms: _82  and  _83
REMARK   36  A    between atoms: _83  and  _84
REMARK   37  A    between atoms: _93  and  _95
REMARK   38  A    between atoms: _95  and  _96
REMARK   39  A    between atoms: _95  and  _98
REMARK   40  A    between atoms: _101  and  _103
REMARK   41  A    between atoms: _103  and  _104
REMARK   42  A    between atoms: _107  and  _109
REMARK   43  A    between atoms: _109  and  _110
REMARK   44  A    between atoms: _109  and  _112
REMARK   45  A    between atoms: _115  and  _117
REMARK   46  A    between atoms: _117  and  _118
REMARK   47  A    between atoms: _117  and  _120
REMARK   48  A    between atoms: _120  and  _121
REMARK   49  A    between atoms: _121  and  _122
REMARK   50  A    between atoms: _122  and  _123
REMARK   51  A    between atoms: _123  and  _124
REMARK   52  A    between atoms: _128  and  _130
REMARK   53  A    between atoms: _130  and  _131
REMARK   54  A    between atoms: _130  and  _133
REMARK   55  A    between atoms: _133  and  _134
REMARK   56  A    between atoms: _134  and  _135
REMARK   57  A    between atoms: _135  and  _136
REMARK   58  A    between atoms: _136  and  _137
REMARK   59  A    between atoms: _141  and  _143
REMARK   60  A    between atoms: _143  and  _144
REMARK   61  A    between atoms: _143  and  _146
REMARK   62  A    between atoms: _146  and  _147
REMARK   63  A    between atoms: _150  and  _152
REMARK   64  A    between atoms: _152  and  _153
REMARK   65  A    between atoms: _152  and  _155
REMARK   66  A    between atoms: _155  and  _156
REMARK   67  A    between atoms: _156  and  _157
REMARK   68  A    between atoms: _157  and  _158
REMARK   69  A    between atoms: _167  and  _169
REMARK   70  A    between atoms: _169  and  _170
REMARK   71  A    between atoms: _169  and  _172
REMARK   72  A    between atoms: _172  and  _173
REMARK   73  A    between atoms: _173  and  _174
REMARK   74  A    between atoms: _174  and  _175
REMARK   75  A    between atoms: _184  and  _186
REMARK   76  A    between atoms: _186  and  _187
REMARK   77  A    between atoms: _186  and  _189
REMARK   78  A    between atoms: _189  and  _190
REMARK   79  A    between atoms: _190  and  _191
REMARK   80  A    between atoms: _194  and  _196
REMARK   81  A    between atoms: _196  and  _197
REMARK   82  A    between atoms: _196  and  _199
REMARK   83  A    between atoms: _199  and  _200
REMARK   84  A    between atoms: _203  and  _205
REMARK   85  A    between atoms: _205  and  _206
REMARK   86  A    between atoms: _205  and  _208
REMARK   87  A    between atoms: _208  and  _209
REMARK   88  A    between atoms: _209  and  _210
REMARK   89  A    between atoms: _210  and  _211
REMARK   90  A    between atoms: _220  and  _222
REMARK   91  A    between atoms: _222  and  _223
REMARK   92  A    between atoms: _222  and  _225
REMARK   93  A    between atoms: _225  and  _226
REMARK   94  A    between atoms: _229  and  _231
REMARK   95  A    between atoms: _231  and  _232
REMARK   96  A    between atoms: _231  and  _234
REMARK   97  A    between atoms: _234  and  _235
REMARK   98  A    between atoms: _238  and  _240
REMARK   99  A    between atoms: _240  and  _241
REMARK  100  A    between atoms: _240  and  _243
REMARK  101  A    between atoms: _243  and  _244
REMARK  102  A    between atoms: _244  and  _245
REMARK  103  A    between atoms: _245  and  _246
REMARK  104  A    between atoms: _246  and  _247
REMARK  105  A    between atoms: _251  and  _253
REMARK  106  A    between atoms: _253  and  _254
REMARK  107  A    between atoms: _253  and  _256
REMARK  108  A    between atoms: _256  and  _257
REMARK  109  A    between atoms: _257  and  _258
REMARK  110  A    between atoms: _260  and  _262
REMARK  111  A    between atoms: _262  and  _263
REMARK  112  A    between atoms: _262  and  _265
REMARK  113  A    between atoms: _268  and  _270
REMARK  114  A    between atoms: _270  and  _271
REMARK  115  A    between atoms: _270  and  _273
REMARK  116  A    between atoms: _273  and  _274
REMARK  117  A    between atoms: _277  and  _279
REMARK  118  A    between atoms: _279  and  _280
REMARK  119  A    between atoms: _282  and  _284
REMARK  120  A    between atoms: _284  and  _285
REMARK  121  A    between atoms: _284  and  _287
REMARK  122  A    between atoms: _287  and  _288
REMARK  123  A    between atoms: _291  and  _293
REMARK  124  A    between atoms: _293  and  _294
REMARK  125  A    between atoms: _293  and  _296
REMARK  126  A    between atoms: _296  and  _297
REMARK  127  A    between atoms: _300  and  _302
REMARK  128  A    between atoms: _302  and  _303
REMARK  129  A    between atoms: _302  and  _305
REMARK  130  A    between atoms: _305  and  _306
REMARK  131  A    between atoms: _309  and  _311
REMARK  132  A    between atoms: _311  and  _312
REMARK  133  A    between atoms: _311  and  _314
REMARK  134  A    between atoms: _314  and  _315
REMARK  135  A    between atoms: _320  and  _321
REMARK  136  A    between atoms: _323  and  _325
REMARK  137  A    between atoms: _325  and  _326
REMARK  138  A    between atoms: _325  and  _328
REMARK  139  A    between atoms: _328  and  _329
REMARK  140  A    between atoms: _332  and  _334
REMARK  141  A    between atoms: _334  and  _335
REMARK  142  A    between atoms: _334  and  _337
REMARK  143  A    between atoms: _340  and  _342
REMARK  144  A    between atoms: _342  and  _343
REMARK  145  A    between atoms: _342  and  _345
REMARK  146  A    between atoms: _345  and  _346
REMARK  147  A    between atoms: _349  and  _351
REMARK  148  A    between atoms: _351  and  _352
REMARK  149  A    between atoms: _351  and  _354
REMARK  150  A    between atoms: _354  and  _355
REMARK  151  A    between atoms: _360  and  _362
REMARK  152  A    between atoms: _362  and  _363
REMARK  153  A    between atoms: _362  and  _365
REMARK  154  A    between atoms: _365  and  _366
REMARK  155  A    between atoms: _369  and  _371
REMARK  156  A    between atoms: _371  and  _372
REMARK  157  A    between atoms: _371  and  _374
REMARK  158  A    between atoms: _374  and  _375
REMARK  159  A    between atoms: _375  and  _376
REMARK  160  A    between atoms: _378  and  _380
REMARK  161  A    between atoms: _380  and  _381
REMARK  162  A    between atoms: _383  and  _385
REMARK  163  A    between atoms: _385  and  _386
REMARK  164  A    between atoms: _389  and  _391
REMARK  165  A    between atoms: _391  and  _392
REMARK  166  A    between atoms: _391  and  _394
REMARK  167  A    between atoms: _394  and  _395
REMARK  168  A    between atoms: _398  and  _400
REMARK  169  A    between atoms: _400  and  _401
REMARK  170  A    between atoms: _400  and  _403
REMARK  171  A    between atoms: _403  and  _404
REMARK  172  A    between atoms: _407  and  _409
REMARK  173  A    between atoms: _409  and  _410
REMARK  174  A    between atoms: _409  and  _412
REMARK  175  A    between atoms: _412  and  _413
REMARK  176  A    between atoms: _418  and  _420
REMARK  177  A    between atoms: _420  and  _421
REMARK  178  A    between atoms: _420  and  _423
REMARK  179  A    between atoms: _423  and  _424
REMARK  180  A    between atoms: _429  and  _431
REMARK  181  A    between atoms: _431  and  _432
REMARK  182  A    between atoms: _431  and  _434
REMARK  183  A    between atoms: _434  and  _435
REMARK  184  A    between atoms: _438  and  _440
REMARK  185  A    between atoms: _440  and  _441
REMARK  186  A    between atoms: _440  and  _443
REMARK  187  A    between atoms: _443  and  _444
REMARK  188  A    between atoms: _447  and  _449
REMARK  189  A    between atoms: _449  and  _450
REMARK  190  A    between atoms: _449  and  _452
REMARK  191  A    between atoms: _452  and  _453
REMARK  192  A    between atoms: _459  and  _460
REMARK  193  A    between atoms: _465  and  _467
REMARK  194  A    between atoms: _467  and  _468
REMARK  195  A    between atoms: _467  and  _470
REMARK  196  A    between atoms: _470  and  _471
REMARK  197  A    between atoms: _473  and  _475
REMARK  198  A    between atoms: _475  and  _476
REMARK  199  A    between atoms: _475  and  _478
REMARK  200  A    between atoms: _478  and  _479
REMARK  201  A    between atoms: _484  and  _486
REMARK  202  A    between atoms: _486  and  _487
REMARK  203  A    between atoms: _486  and  _489
REMARK  204  A    between atoms: _489  and  _490
REMARK  205  A    between atoms: _493  and  _495
REMARK  206  A    between atoms: _495  and  _496
REMARK  207  A    between atoms: _499  and  _501
REMARK  208  A    between atoms: _501  and  _502
REMARK  209  A    between atoms: _501  and  _504
REMARK  210  A    between atoms: _507  and  _509
REMARK  211  A    between atoms: _509  and  _510
REMARK  212  A    between atoms: _509  and  _512
REMARK  213  A    between atoms: _512  and  _513
REMARK  214  A    between atoms: _518  and  _520
REMARK  215  A    between atoms: _520  and  _521
REMARK  216  A    between atoms: _520  and  _523
REMARK  217  A    between atoms: _523  and  _524
REMARK  218  A    between atoms: _524  and  _525
REMARK  219  A    between atoms: _525  and  _526
REMARK  220  A    between atoms: _526  and  _527
REMARK  221  A    between atoms: _531  and  _533
REMARK  222  A    between atoms: _533  and  _534
REMARK  223  A    between atoms: _533  and  _536
REMARK  224  A    between atoms: _536  and  _537
REMARK  225  A    between atoms: _540  and  _542
REMARK  226  A    between atoms: _542  and  _543
REMARK  227  A    between atoms: _542  and  _545
REMARK  228  A    between atoms: _545  and  _546
REMARK  229  A    between atoms: _549  and  _551
REMARK  230  A    between atoms: _551  and  _552
REMARK  231  A    between atoms: _551  and  _554
REMARK  232  A    between atoms: _554  and  _555
REMARK  233  A    between atoms: _558  and  _560
REMARK  234  A    between atoms: _560  and  _561
REMARK  235  A    between atoms: _560  and  _563
REMARK  236  A    between atoms: _563  and  _564
REMARK  237  A    between atoms: _570  and  _572
REMARK  238  A    between atoms: _572  and  _573
REMARK  239  A    between atoms: _575  and  _577
REMARK  240  A    between atoms: _577  and  _578
REMARK  241  A    between atoms: _577  and  _580
REMARK  242  A    between atoms: _580  and  _581
REMARK  243  A    between atoms: _584  and  _586
REMARK  244  A    between atoms: _586  and  _587
REMARK  245  A    between atoms: _592  and  _593
REMARK  246  A    between atoms: _592  and  _595
REMARK  247  A    between atoms: _595  and  _596
REMARK  248  A    between atoms: _596  and  _597
REMARK  249  A    between atoms: _597  and  _598
REMARK                            x       y       z     vdW  Elec       q    Type
REMARK                         _______ _______ _______ _____ _____    ______ ____
ROOT
ATOM      1  CA  ILE A   1      35.683  23.334  46.478  0.00  0.00    +0.133 C 
ENDROOT
BRANCH   1   2
ATOM      2  N   ILE A   1      34.982  23.636  47.697  0.00  0.00    -0.239 NA
ATOM      3  H   ILE A   1      35.091  24.581  48.117  0.00  0.00    +0.142 HD
ENDBRANCH   1   2
BRANCH   1   4
ATOM      4  C   ILE A   1      37.111  23.025  46.856  0.00  0.00    +0.224 C 
ATOM      5  O   ILE A   1      37.710  23.718  47.699  0.00  0.00    -0.287 OA
ENDBRANCH   1   4
BRANCH   1   6
ATOM      6  CB  ILE A   1      35.602  24.532  45.479  0.00  0.00    +0.023 C 
ATOM      7  CG2 ILE A   1      36.571  24.318  44.315  0.00  0.00    +0.002 C 
BRANCH   6   8
ATOM      8  CG1 ILE A   1      34.197  24.622  44.927  0.00  0.00    +0.002 C 
ATOM      9  CD1 ILE A   1      33.699  26.065  44.645  0.00  0.00    +0.000 C 
ENDBRANCH   6   8
ENDBRANCH   1   6
TORSDOF 4
REMARK  Name = ../refined-set-2016/3d7z/3d7z_pocket.pdb
REMARK  249 active torsions:
REMARK  status: ('A' for Active; 'I' for Inactive)
REMARK    1  A    between atoms: _1  and  _3
REMARK    2  A    between atoms: _3  and  _4
REMARK    3  A    between atoms: _3  and  _6
REMARK    4  A    between atoms: _9  and  _11
REMARK    5  A    between atoms: _11  and  _12
REMARK    6  A    between atoms: _14  and  _16
REMARK    7  A    between atoms: _16  and  _17
REMARK    8  A    between atoms: _16  and  _19
REMARK    9  A    between atoms: _19  and  _20
REMARK   10  A    between atoms: _22  and  _24
REMARK   11  A    between atoms: _24  and  _25
REMARK   12  A    between atoms: _28  and  _30
REMARK   13  A    between atoms: _30  and  _31
REMARK   14  A    between atoms: _30  and  _33
REMARK   15  A    between atoms: _33  and  _34
REMARK   16  A    between atoms: _39  and  _40
REMARK   17  A    between atoms: _42  and  _44
REMARK   18  A    between atoms: _44  and  _45
REMARK   19  A    between atoms: _47  and  _49
REMARK   20  A    between atoms: _49  and  _50
REMARK   21  A    between atoms: _49  and  _52
REMARK   22  A    between atoms: _52  and  _53
REMARK   23  A    between atoms: _55  and  _57
REMARK   24  A    between atoms: _57  and  _58
REMARK   25  A    between atoms: _57  and  _60
REMARK   26  A    between atoms: _63  and  _65
REMARK   27  A    between atoms: _65  and  _66
REMARK   28  A    between atoms: _65  and  _68
REMARK   29  A    between atoms: _70  and  _72
REMARK   30  A    between atoms: _72  and  _73
REMARK   31  A    between atoms: _76  and  _78
REMARK   32  A    between atoms: _78  and  _79
REMARK   33  A    between atoms: _78  and  _81
REMARK   34  A    between atoms: _81  and  _82
REMARK   35  A    between atoms: _82  and  _83
REMARK   36  A    between atoms: _83  and  _84
REMARK   37  A    between atoms: _93  and  _95
REMARK   38  A    between atoms: _95  and  _96
REMARK   39  A    between atoms: _95  and  _98
REMARK   40  A    between atoms: _101  and  _103
REMARK   41  A    between atoms: _103  and  _104
REMARK   42  A    between atoms: _107  and  _109
REMARK   43  A    between atoms: _109  and  _110
REMARK   44  A    between atoms: _109  and  _112
REMARK   45  A    between atoms: _115  and  _117
REMARK   46  A    between atoms: _117  and  _118
REMARK   47  A    between atoms: _117  and  _120
REMARK   48  A    between atoms: _120  and  _121
REMARK   49  A    between atoms: _121  and  _122
REMARK   50  A    between atoms: _122  and  _123
REMARK   51  A    between atoms: _123  and  _124
REMARK   52  A    between atoms: _128  and  _130
REMARK   53  A    between atoms: _130  and  _131
REMARK   54  A    between atoms: _130  and  _133
REMARK   55  A    between atoms: _133  and  _134
REMARK   56  A    between atoms: _134  and  _135
REMARK   57  A    between atoms: _135  and  _136
REMARK   58  A    between atoms: _136  and  _137
REMARK   59  A    between atoms: _141  and  _143
REMARK   60  A    between atoms: _143  and  _144
REMARK   61  A    between atoms: _143  and  _146
REMARK   62  A    between atoms: _146  and  _147
REMARK   63  A    between atoms: _150  and  _152
REMARK   64  A    between atoms: _152  and  _153
REMARK   65  A    between atoms: _152  and  _155
REMARK   66  A    between atoms: _155  and  _156
REMARK   67  A    between atoms: _156  and  _157
REMARK   68  A    between atoms: _157  and  _158
REMARK   69  A    between atoms: _167  and  _169
REMARK   70  A    between atoms: _169  and  _170
REMARK   71  A    between atoms: _169  and  _172
REMARK   72  A    between atoms: _172  and  _173
REMARK   73  A    between atoms: _173  and  _174
REMARK   74  A    between atoms: _174  and  _175
REMARK   75  A    between atoms: _184  and  _186
REMARK   76  A    between atoms: _186  and  _187
REMARK   77  A    between atoms: _186  and  _189
REMARK   78  A    between atoms: _189  and  _190
REMARK   79  A    between atoms: _190  and  _191
REMARK   80  A    between atoms: _194  and  _196
REMARK   81  A    between atoms: _196  and  _197
REMARK   82  A    between atoms: _196  and  _199
REMARK   83  A    between atoms: _199  and  _200
REMARK   84  A    between atoms: _203  and  _205
REMARK   85  A    between atoms: _205  and  _206
REMARK   86  A    between atoms: _205  and  _208
REMARK   87  A    between atoms: _208  and  _209
REMARK   88  A    between atoms: _209  and  _210
REMARK   89  A    between atoms: _210  and  _211
REMARK   90  A    between atoms: _220  and  _222
REMARK   91  A    between atoms: _222  and  _223
REMARK   92  A    between atoms: _222  and  _225
REMARK   93  A    between atoms: _225  and  _226
REMARK   94  A    between atoms: _229  and  _231
REMARK   95  A    between atoms: _231  and  _232
REMARK   96  A    between atoms: _231  and  _234
REMARK   97  A    between atoms: _234  and  _235
REMARK   98  A    between atoms: _238  and  _240
REMARK   99  A    between atoms: _240  and  _241
REMARK  100  A    between atoms: _240  and  _243
REMARK  101  A    between atoms: _243  and  _244
REMARK  102  A    between atoms: _244  and  _245
REMARK  103  A    between atoms: _245  and  _246
REMARK  104  A    between atoms: _246  and  _247
REMARK  105  A    between atoms: _251  and  _253
REMARK  106  A    between atoms: _253  and  _254
REMARK  107  A    between atoms: _253  and  _256
REMARK  108  A    between atoms: _256  and  _257
REMARK  109  A    between atoms: _257  and  _258
REMARK  110  A    between atoms: _260  and  _262
REMARK  111  A    between atoms: _262  and  _263
REMARK  112  A    between atoms: _262  and  _265
REMARK  113  A    between atoms: _268  and  _270
REMARK  114  A    between atoms: _270  and  _271
REMARK  115  A    between atoms: _270  and  _273
REMARK  116  A    between atoms: _273  and  _274
REMARK  117  A    between atoms: _277  and  _279
REMARK  118  A    between atoms: _279  and  _280
REMARK  119  A    between atoms: _282  and  _284
REMARK  120  A    between atoms: _284  and  _285
REMARK  121  A    between atoms: _284  and  _287
REMARK  122  A    between atoms: _287  and  _288
REMARK  123  A    between atoms: _291  and  _293
REMARK  124  A    between atoms: _293  and  _294
REMARK  125  A    between atoms: _293  and  _296
REMARK  126  A    between atoms: _296  and  _297
REMARK  127  A    between atoms: _300  and  _302
REMARK  128  A    between atoms: _302  and  _303
REMARK  129  A    between atoms: _302  and  _305
REMARK  130  A    between atoms: _305  and  _306
REMARK  131  A    between atoms: _309  and  _311
REMARK  132  A    between atoms: _311  and  _312
REMARK  133  A    between atoms: _311  and  _314
REMARK  134  A    between atoms: _314  and  _315
REMARK  135  A    between atoms: _320  and  _321
REMARK  136  A    between atoms: _323  and  _325
REMARK  137  A    between atoms: _325  and  _326
REMARK  138  A    between atoms: _325  and  _328
REMARK  139  A    between atoms: _328  and  _329
REMARK  140  A    between atoms: _332  and  _334
REMARK  141  A    between atoms: _334  and  _335
REMARK  142  A    between atoms: _334  and  _337
REMARK  143  A    between atoms: _340  and  _342
REMARK  144  A    between atoms: _342  and  _343
REMARK  145  A    between atoms: _342  and  _345
REMARK  146  A    between atoms: _345  and  _346
REMARK  147  A    between atoms: _349  and  _351
REMARK  148  A    between atoms: _351  and  _352
REMARK  149  A    between atoms: _351  and  _354
REMARK  150  A    between atoms: _354  and  _355
REMARK  151  A    between atoms: _360  and  _362
REMARK  152  A    between atoms: _362  and  _363
REMARK  153  A    between atoms: _362  and  _365
REMARK  154  A    between atoms: _365  and  _366
REMARK  155  A    between atoms: _369  and  _371
REMARK  156  A    between atoms: _371  and  _372
REMARK  157  A    between atoms: _371  and  _374
REMARK  158  A    between atoms: _374  and  _375
REMARK  159  A    between atoms: _375  and  _376
REMARK  160  A    between atoms: _378  and  _380
REMARK  161  A    between atoms: _380  and  _381
REMARK  162  A    between atoms: _383  and  _385
REMARK  163  A    between atoms: _385  and  _386
REMARK  164  A    between atoms: _389  and  _391
REMARK  165  A    between atoms: _391  and  _392
REMARK  166  A    between atoms: _391  and  _394
REMARK  167  A    between atoms: _394  and  _395
REMARK  168  A    between atoms: _398  and  _400
REMARK  169  A    between atoms: _400  and  _401
REMARK  170  A    between atoms: _400  and  _403
REMARK  171  A    between atoms: _403  and  _404
REMARK  172  A    between atoms: _407  and  _409
REMARK  173  A    between atoms: _409  and  _410
REMARK  174  A    between atoms: _409  and  _412
REMARK  175  A    between atoms: _412  and  _413
REMARK  176  A    between atoms: _418  and  _420
REMARK  177  A    between atoms: _420  and  _421
REMARK  178  A    between atoms: _420  and  _423
REMARK  179  A    between atoms: _423  and  _424
REMARK  180  A    between atoms: _429  and  _431
REMARK  181  A    between atoms: _431  and  _432
REMARK  182  A    between atoms: _431  and  _434
REMARK  183  A    between atoms: _434  and  _435
REMARK  184  A    between atoms: _438  and  _440
REMARK  185  A    between atoms: _440  and  _441
REMARK  186  A    between atoms: _440  and  _443
REMARK  187  A    between atoms: _443  and  _444
REMARK  188  A    between atoms: _447  and  _449
REMARK  189  A    between atoms: _449  and  _450
REMARK  190  A    between atoms: _449  and  _452
REMARK  191  A    between atoms: _452  and  _453
REMARK  192  A    between atoms: _459  and  _460
REMARK  193  A    between atoms: _465  and  _467
REMARK  194  A    between atoms: _467  and  _468
REMARK  195  A    between atoms: _467  and  _470
REMARK  196  A    between atoms: _470  and  _471
REMARK  197  A    between atoms: _473  and  _475
REMARK  198  A    between atoms: _475  and  _476
REMARK  199  A    between atoms: _475  and  _478
REMARK  200  A    between atoms: _478  and  _479
REMARK  201  A    between atoms: _484  and  _486
REMARK  202  A    between atoms: _486  and  _487
REMARK  203  A    between atoms: _486  and  _489
REMARK  204  A    between atoms: _489  and  _490
REMARK  205  A    between atoms: _493  and  _495
REMARK  206  A    between atoms: _495  and  _496
REMARK  207  A    between atoms: _499  and  _501
REMARK  208  A    between atoms: _501  and  _502
REMARK  209  A    between atoms: _501  and  _504
REMARK  210  A    between atoms: _507  and  _509
REMARK  211  A    between atoms: _509  and  _510
REMARK  212  A    between atoms: _509  and  _512
REMARK  213  A    between atoms: _512  and  _513
REMARK  214  A    between atoms: _518  and  _520
REMARK  215  A    between atoms: _520  and  _521
REMARK  216  A    between atoms: _520  and  _523
REMARK  217  A    between atoms: _523  and  _524
REMARK  218  A    between atoms: _524  and  _525
REMARK  219  A    between atoms: _525  and  _526
REMARK  220  A    between atoms: _526  and  _527
REMARK  221  A    between atoms: _531  and  _533
REMARK  222  A    between atoms: _533  and  _534
REMARK  223  A    between atoms: _533  and  _536
REMARK  224  A    between atoms: _536  and  _537
REMARK  225  A    between atoms: _540  and  _542
REMARK  226  A    between atoms: _542  and  _543
REMARK  227  A    between atoms: _542  and  _545
REMARK  228  A    between atoms: _545  and  _546
REMARK  229  A    between atoms: _549  and  _551
REMARK  230  A    between atoms: _551  and  _552
REMARK  231  A    between atoms: _551  and  _554
REMARK  232  A    between atoms: _554  and  _555
REMARK  233  A    between atoms: _558  and  _560
REMARK  234  A    between atoms: _560  and  _561
REMARK  235  A    between atoms: _560  and  _563
REMARK  236  A    between atoms: _563  and  _564
REMARK  237  A    between atoms: _570  and  _572
REMARK  238  A    between atoms: _572  and  _573
REMARK  239  A    between atoms: _575  and  _577
REMARK  240  A    between atoms: _577  and  _578
REMARK  241  A    between atoms: _577  and  _580
REMARK  242  A    between atoms: _580  and  _581
REMARK  243  A    between atoms: _584  and  _586
REMARK  244  A    between atoms: _586  and  _587
REMARK  245  A    between atoms: _592  and  _593
REMARK  246  A    between atoms: _592  and  _595
REMARK  247  A    between atoms: _595  and  _596
REMARK  248  A    between atoms: _596  and  _597
REMARK  249  A    between atoms: _597  and  _598
REMARK                            x       y       z     vdW  Elec       q    Type
REMARK                         _______ _______ _______ _____ _____    ______ ____
ROOT
ATOM      1  CB  HIS A   1      42.752  24.046  44.065  0.00  0.00    +0.072 C 
ENDROOT
BRANCH   1   2
ATOM      2  CG  HIS A   1      43.331  24.489  42.753  0.00  0.00    +0.082 A 
ATOM      3  CD2 HIS A   1      43.367  25.706  42.153  0.00  0.00    +0.115 A 
ATOM      4  NE2 HIS A   1      43.975  25.536  40.927  0.00  0.00    -0.221 NA
ATOM      5  CE1 HIS A   1      44.260  24.256  40.764  0.00  0.00    +0.199 A 
ATOM      6  ND1 HIS A   1      43.893  23.606  41.858  0.00  0.00    -0.227 NA
ENDBRANCH   1   2
BRANCH   1   7
ATOM      7  CA  HIS A   1      41.627  23.000  43.899  0.00  0.00    +0.139 C 
BRANCH   7   8
ATOM      8  N   HIS A   1      40.934  22.689  45.147  0.00  0.00    -0.239 NA
ATOM      9  H   HIS A   1      41.339  22.961  46.065  0.00  0.00    +0.142 HD
ENDBRANCH   7   8
BRANCH   7  10
ATOM     10  C   HIS A   1      42.157  21.697  43.302  0.00  0.00    +0.224 C 
ATOM     11  O   HIS A   1      41.821  21.356  42.156  0.00  0.00    -0.287 OA
ENDBRANCH   7  10
ENDBRANCH   1   7
TORSDOF 4
REMARK  Name = ../refined-set-2016/3d7z/3d7z_pocket.pdb
REMARK  249 active torsions:
REMARK  status: ('A' for Active; 'I' for Inactive)
REMARK    1  A    between atoms: _1  and  _3
REMARK    2  A    between atoms: _3  and  _4
REMARK    3  A    between atoms: _3  and  _6
REMARK    4  A    between atoms: _9  and  _11
REMARK    5  A    between atoms: _11  and  _12
REMARK    6  A    between atoms: _14  and  _16
REMARK    7  A    between atoms: _16  and  _17
REMARK    8  A    between atoms: _16  and  _19
REMARK    9  A    between atoms: _19  and  _20
REMARK   10  A    between atoms: _22  and  _24
REMARK   11  A    between atoms: _24  and  _25
REMARK   12  A    between atoms: _28  and  _30
REMARK   13  A    between atoms: _30  and  _31
REMARK   14  A    between atoms: _30  and  _33
REMARK   15  A    between atoms: _33  and  _34
REMARK   16  A    between atoms: _39  and  _40
REMARK   17  A    between atoms: _42  and  _44
REMARK   18  A    between atoms: _44  and  _45
REMARK   19  A    between atoms: _47  and  _49
REMARK   20  A    between atoms: _49  and  _50
REMARK   21  A    between atoms: _49  and  _52
REMARK   22  A    between atoms: _52  and  _53
REMARK   23  A    between atoms: _55  and  _57
REMARK   24  A    between atoms: _57  and  _58
REMARK   25  A    between atoms: _57  and  _60
REMARK   26  A    between atoms: _63  and  _65
REMARK   27  A    between atoms: _65  and  _66
REMARK   28  A    between atoms: _65  and  _68
REMARK   29  A    between atoms: _70  and  _72
REMARK   30  A    between atoms: _72  and  _73
REMARK   31  A    between atoms: _76  and  _78
REMARK   32  A    between atoms: _78  and  _79
REMARK   33  A    between atoms: _78  and  _81
REMARK   34  A    between atoms: _81  and  _82
REMARK   35  A    between atoms: _82  and  _83
REMARK   36  A    between atoms: _83  and  _84
REMARK   37  A    between atoms: _93  and  _95
REMARK   38  A    between atoms: _95  and  _96
REMARK   39  A    between atoms: _95  and  _98
REMARK   40  A    between atoms: _101  and  _103
REMARK   41  A    between atoms: _103  and  _104
REMARK   42  A    between atoms: _107  and  _109
REMARK   43  A    between atoms: _109  and  _110
REMARK   44  A    between atoms: _109  and  _112
REMARK   45  A    between atoms: _115  and  _117
REMARK   46  A    between atoms: _117  and  _118
REMARK   47  A    between atoms: _117  and  _120
REMARK   48  A    between atoms: _120  and  _121
REMARK   49  A    between atoms: _121  and  _122
REMARK   50  A    between atoms: _122  and  _123
REMARK   51  A    between atoms: _123  and  _124
REMARK   52  A    between atoms: _128  and  _130
REMARK   53  A    between atoms: _130  and  _131
REMARK   54  A    between atoms: _130  and  _133
REMARK   55  A    between atoms: _133  and  _134
REMARK   56  A    between atoms: _134  and  _135
REMARK   57  A    between atoms: _135  and  _136
REMARK   58  A    between atoms: _136  and  _137
REMARK   59  A    between atoms: _141  and  _143
REMARK   60  A    between atoms: _143  and  _144
REMARK   61  A    between atoms: _143  and  _146
REMARK   62  A    between atoms: _146  and  _147
REMARK   63  A    between atoms: _150  and  _152
REMARK   64  A    between atoms: _152  and  _153
REMARK   65  A    between atoms: _152  and  _155
REMARK   66  A    between atoms: _155  and  _156
REMARK   67  A    between atoms: _156  and  _157
REMARK   68  A    between atoms: _157  and  _158
REMARK   69  A    between atoms: _167  and  _169
REMARK   70  A    between atoms: _169  and  _170
REMARK   71  A    between atoms: _169  and  _172
REMARK   72  A    between atoms: _172  and  _173
REMARK   73  A    between atoms: _173  and  _174
REMARK   74  A    between atoms: _174  and  _175
REMARK   75  A    between atoms: _184  and  _186
REMARK   76  A    between atoms: _186  and  _187
REMARK   77  A    between atoms: _186  and  _189
REMARK   78  A    between atoms: _189  and  _190
REMARK   79  A    between atoms: _190  and  _191
REMARK   80  A    between atoms: _194  and  _196
REMARK   81  A    between atoms: _196  and  _197
REMARK   82  A    between atoms: _196  and  _199
REMARK   83  A    between atoms: _199  and  _200
REMARK   84  A    between atoms: _203  and  _205
REMARK   85  A    between atoms: _205  and  _206
REMARK   86  A    between atoms: _205  and  _208
REMARK   87  A    between atoms: _208  and  _209
REMARK   88  A    between atoms: _209  and  _210
REMARK   89  A    between atoms: _210  and  _211
REMARK   90  A    between atoms: _220  and  _222
REMARK   91  A    between atoms: _222  and  _223
REMARK   92  A    between atoms: _222  and  _225
REMARK   93  A    between atoms: _225  and  _226
REMARK   94  A    between atoms: _229  and  _231
REMARK   95  A    between atoms: _231  and  _232
REMARK   96  A    between atoms: _231  and  _234
REMARK   97  A    between atoms: _234  and  _235
REMARK   98  A    between atoms: _238  and  _240
REMARK   99  A    between atoms: _240  and  _241
REMARK  100  A    between atoms: _240  and  _243
REMARK  101  A    between atoms: _243  and  _244
REMARK  102  A    between atoms: _244  and  _245
REMARK  103  A    between atoms: _245  and  _246
REMARK  104  A    between atoms: _246  and  _247
REMARK  105  A    between atoms: _251  and  _253
REMARK  106  A    between atoms: _253  and  _254
REMARK  107  A    between atoms: _253  and  _256
REMARK  108  A    between atoms: _256  and  _257
REMARK  109  A    between atoms: _257  and  _258
REMARK  110  A    between atoms: _260  and  _262
REMARK  111  A    between atoms: _262  and  _263
REMARK  112  A    between atoms: _262  and  _265
REMARK  113  A    between atoms: _268  and  _270
REMARK  114  A    between atoms: _270  and  _271
REMARK  115  A    between atoms: _270  and  _273
REMARK  116  A    between atoms: _273  and  _274
REMARK  117  A    between atoms: _277  and  _279
REMARK  118  A    between atoms: _279  and  _280
REMARK  119  A    between atoms: _282  and  _284
REMARK  120  A    between atoms: _284  and  _285
REMARK  121  A    between atoms: _284  and  _287
REMARK  122  A    between atoms: _287  and  _288
REMARK  123  A    between atoms: _291  and  _293
REMARK  124  A    between atoms: _293  and  _294
REMARK  125  A    between atoms: _293  and  _296
REMARK  126  A    between atoms: _296  and  _297
REMARK  127  A    between atoms: _300  and  _302
REMARK  128  A    between atoms: _302  and  _303
REMARK  129  A    between atoms: _302  and  _305
REMARK  130  A    between atoms: _305  and  _306
REMARK  131  A    between atoms: _309  and  _311
REMARK  132  A    between atoms: _311  and  _312
REMARK  133  A    between atoms: _311  and  _314
REMARK  134  A    between atoms: _314  and  _315
REMARK  135  A    between atoms: _320  and  _321
REMARK  136  A    between atoms: _323  and  _325
REMARK  137  A    between atoms: _325  and  _326
REMARK  138  A    between atoms: _325  and  _328
REMARK  139  A    between atoms: _328  and  _329
REMARK  140  A    between atoms: _332  and  _334
REMARK  141  A    between atoms: _334  and  _335
REMARK  142  A    between atoms: _334  and  _337
REMARK  143  A    between atoms: _340  and  _342
REMARK  144  A    between atoms: _342  and  _343
REMARK  145  A    between atoms: _342  and  _345
REMARK  146  A    between atoms: _345  and  _346
REMARK  147  A    between atoms: _349  and  _351
REMARK  148  A    between atoms: _351  and  _352
REMARK  149  A    between atoms: _351  and  _354
REMARK  150  A    between atoms: _354  and  _355
REMARK  151  A    between atoms: _360  and  _362
REMARK  152  A    between atoms: _362  and  _363
REMARK  153  A    between atoms: _362  and  _365
REMARK  154  A    between atoms: _365  and  _366
REMARK  155  A    between atoms: _369  and  _371
REMARK  156  A    between atoms: _371  and  _372
REMARK  157  A    between atoms: _371  and  _374
REMARK  158  A    between atoms: _374  and  _375
REMARK  159  A    between atoms: _375  and  _376
REMARK  160  A    between atoms: _378  and  _380
REMARK  161  A    between atoms: _380  and  _381
REMARK  162  A    between atoms: _383  and  _385
REMARK  163  A    between atoms: _385  and  _386
REMARK  164  A    between atoms: _389  and  _391
REMARK  165  A    between atoms: _391  and  _392
REMARK  166  A    between atoms: _391  and  _394
REMARK  167  A    between atoms: _394  and  _395
REMARK  168  A    between atoms: _398  and  _400
REMARK  169  A    between atoms: _400  and  _401
REMARK  170  A    between atoms: _400  and  _403
REMARK  171  A    between atoms: _403  and  _404
REMARK  172  A    between atoms: _407  and  _409
REMARK  173  A    between atoms: _409  and  _410
REMARK  174  A    between atoms: _409  and  _412
REMARK  175  A    between atoms: _412  and  _413
REMARK  176  A    between atoms: _418  and  _420
REMARK  177  A    between atoms: _420  and  _421
REMARK  178  A    between atoms: _420  and  _423
REMARK  179  A    between atoms: _423  and  _424
REMARK  180  A    between atoms: _429  and  _431
REMARK  181  A    between atoms: _431  and  _432
REMARK  182  A    between atoms: _431  and  _434
REMARK  183  A    between atoms: _434  and  _435
REMARK  184  A    between atoms: _438  and  _440
REMARK  185  A    between atoms: _440  and  _441
REMARK  186  A    between atoms: _440  and  _443
REMARK  187  A    between atoms: _443  and  _444
REMARK  188  A    between atoms: _447  and  _449
REMARK  189  A    between atoms: _449  and  _450
REMARK  190  A    between atoms: _449  and  _452
REMARK  191  A    between atoms: _452  and  _453
REMARK  192  A    between atoms: _459  and  _460
REMARK  193  A    between atoms: _465  and  _467
REMARK  194  A    between atoms: _467  and  _468
REMARK  195  A    between atoms: _467  and  _470
REMARK  196  A    between atoms: _470  and  _471
REMARK  197  A    between atoms: _473  and  _475
REMARK  198  A    between atoms: _475  and  _476
REMARK  199  A    between atoms: _475  and  _478
REMARK  200  A    between atoms: _478  and  _479
REMARK  201  A    between atoms: _484  and  _486
REMARK  202  A    between atoms: _486  and  _487
REMARK  203  A    between atoms: _486  and  _489
REMARK  204  A    between atoms: _489  and  _490
REMARK  205  A    between atoms: _493  and  _495
REMARK  206  A    between atoms: _495  and  _496
REMARK  207  A    between atoms: _499  and  _501
REMARK  208  A    between atoms: _501  and  _502
REMARK  209  A    between atoms: _501  and  _504
REMARK  210  A    between atoms: _507  and  _509
REMARK  211  A    between atoms: _509  and  _510
REMARK  212  A    between atoms: _509  and  _512
REMARK  213  A    between atoms: _512  and  _513
REMARK  214  A    between atoms: _518  and  _520
REMARK  215  A    between atoms: _520  and  _521
REMARK  216  A    between atoms: _520  and  _523
REMARK  217  A    between atoms: _523  and  _524
REMARK  218  A    between atoms: _524  and  _525
REMARK  219  A    between atoms: _525  and  _526
REMARK  220  A    between atoms: _526  and  _527
REMARK  221  A    between atoms: _531  and  _533
REMARK  222  A    between atoms: _533  and  _534
REMARK  223  A    between atoms: _533  and  _536
REMARK  224  A    between atoms: _536  and  _537
REMARK  225  A    between atoms: _540  and  _542
REMARK  226  A    between atoms: _542  and  _543
REMARK  227  A    between atoms: _542  and  _545
REMARK  228  A    between atoms: _545  and  _546
REMARK  229  A    between atoms: _549  and  _551
REMARK  230  A    between atoms: _551  and  _552
REMARK  231  A    between atoms: _551  and  _554
REMARK  232  A    between atoms: _554  and  _555
REMARK  233  A    between atoms: _558  and  _560
REMARK  234  A    between atoms: _560  and  _561
REMARK  235  A    between atoms: _560  and  _563
REMARK  236  A    between atoms: _563  and  _564
REMARK  237  A    between atoms: _570  and  _572
REMARK  238  A    between atoms: _572  and  _573
REMARK  239  A    between atoms: _575  and  _577
REMARK  240  A    between atoms: _577  and  _578
REMARK  241  A    between atoms: _577  and  _580
REMARK  242  A    between atoms: _580  and  _581
REMARK  243  A    between atoms: _584  and  _586
REMARK  244  A    between atoms: _586  and  _587
REMARK  245  A    between atoms: _592  and  _593
REMARK  246  A    between atoms: _592  and  _595
REMARK  247  A    between atoms: _595  and  _596
REMARK  248  A    between atoms: _596  and  _597
REMARK  249  A    between atoms: _597  and  _598
REMARK                            x       y       z     vdW  Elec       q    Type
REMARK                         _______ _______ _______ _____ _____    ______ ____
ROOT
ATOM      1  CA  LEU A   4      48.577  31.444  39.650  0.00  0.00    +0.149 C 
ENDROOT
BRANCH   1   2
ATOM      2  C   LEU A   4      48.920  32.579  38.703  0.00  0.00    +0.241 C 
ATOM      3  N   ALA A   5      47.893  33.353  38.335  0.00  0.00    -0.297 N 
ATOM      4  H   ALA A   5      46.967  33.163  38.768  0.00  0.00    +0.150 HD
ATOM      5  O   LEU A   4      50.054  32.680  38.243  0.00  0.00    -0.273 OA
BRANCH   3   6
ATOM      6  CA  ALA A   5      47.977  34.440  37.374  0.00  0.00    +0.149 C 
ATOM      7  CB  ALA A   5      46.662  34.548  36.586  0.00  0.00    +0.031 C 
BRANCH   6   8
ATOM      8  C   ALA A   5      48.263  35.735  38.131  0.00  0.00    +0.241 C 
ATOM      9  O   ALA A   5      47.711  35.969  39.209  0.00  0.00    -0.273 OA
ATOM     10  N   VAL A   6      49.166  36.545  37.594  0.00  0.00    -0.297 N 
ATOM     11  H   VAL A   6      49.456  36.398  36.606  0.00  0.00    +0.150 HD
BRANCH  10  12
ATOM     12  CA  VAL A   6      49.765  37.644  38.362  0.00  0.00    +0.149 C 
BRANCH  12  13
ATOM     13  C   VAL A   6      49.911  38.861  37.472  0.00  0.00    +0.241 C 
ATOM     14  N   ASN A   7      49.481  40.034  37.949  0.00  0.00    -0.298 N 
ATOM     15  H   ASN A   7      48.977  40.060  38.858  0.00  0.00    +0.150 HD
ATOM     16  O   VAL A   6      50.353  38.727  36.339  0.00  0.00    -0.273 OA
BRANCH  14  17
ATOM     17  CA  ASN A   7      49.710  41.302  37.205  0.00  0.00    +0.146 C 
BRANCH  17  18
ATOM     18  C   ASN A   7      51.019  42.006  37.627  0.00  0.00    +0.227 C 
ATOM     19  O   ASN A   7      51.760  41.516  38.516  0.00  0.00    -0.286 OA
ENDBRANCH  17  18
BRANCH  17  20
ATOM     20  CB  ASN A   7      48.484  42.247  37.237  0.00  0.00    +0.112 C 
BRANCH  20  21
ATOM     21  CG  ASN A   7      48.206  42.851  38.614  0.00  0.00    +0.222 C 
ATOM     22  OD1 ASN A   7      49.060  42.871  39.502  0.00  0.00    -0.275 OA
ATOM     23  ND2 ASN A   7      46.993  43.374  38.782  0.00  0.00    -0.329 N 
ATOM     24 HD21 ASN A   7      46.739  43.819  39.687  0.00  0.00    +0.145 HD
ATOM     25 HD22 ASN A   7      46.299  43.337  38.008  0.00  0.00    +0.145 HD
ENDBRANCH  20  21
ENDBRANCH  17  20
ENDBRANCH  14  17
ENDBRANCH  12  13
BRANCH  12  26
ATOM     26  CB  VAL A   6      51.167  37.224  38.969  0.00  0.00    +0.027 C 
ATOM     27  CG2 VAL A   6      51.037  35.981  39.892  0.00  0.00    +0.002 C 
ATOM     28  CG1 VAL A   6      51.783  38.351  39.789  0.00  0.00    +0.002 C 
ENDBRANCH  12  26
ENDBRANCH  10  12
ENDBRANCH   6   8
ENDBRANCH   3   6
ENDBRANCH   1   2
BRANCH   1  31
ATOM     29  C   ASN A   3      47.575  29.441  38.637  0.00  0.00    +0.241 C 
ATOM     30  O   ASN A   3      46.461  29.637  39.153  0.00  0.00    -0.273 OA
ATOM     31  N   LEU A   4      48.660  30.182  38.906  0.00  0.00    -0.297 N 
ATOM     32  H   LEU A   4      49.590  29.852  38.577  0.00  0.00    +0.150 HD
BRANCH  29  33
ATOM     33  CA  ASN A   3      47.798  28.321  37.617  0.00  0.00    +0.158 C 
BRANCH  33  35
ATOM     34  C   SER A   2      49.814  28.146  36.418  0.00  0.00    +0.243 C 
ATOM     35  N   ASN A   3      49.170  27.874  37.534  0.00  0.00    -0.297 N 
ATOM     36  H   ASN A   3      49.626  27.363  38.317  0.00  0.00    +0.150 HD
ATOM     37  O   SER A   2      49.221  28.552  35.436  0.00  0.00    -0.273 OA
BRANCH  34  38
ATOM     38  CA  SER A   2      51.329  27.902  36.355  0.00  0.00    +0.178 C 
BRANCH  38  41
ATOM     39  C   PRO A   1      52.106  28.537  38.574  0.00  0.00    +0.239 C 
ATOM     40  O   PRO A   1      51.697  29.704  38.464  0.00  0.00    -0.274 OA
ATOM     41  N   SER A   2      51.966  27.609  37.625  0.00  0.00    -0.295 N 
ATOM     42  H   SER A   2      52.324  26.648  37.801  0.00  0.00    +0.150 HD
BRANCH  39  47
ATOM     43  N   PRO A   1      52.467  26.750  40.323  0.00  0.00    -0.210 NA
ATOM     44  CD  PRO A   1      53.698  25.991  40.629  0.00  0.00    +0.089 C 
ATOM     45  CG  PRO A   1      54.726  27.105  40.878  0.00  0.00    +0.021 C 
ATOM     46  CB  PRO A   1      54.351  28.097  39.737  0.00  0.00    +0.028 C 
ATOM     47  CA  PRO A   1      52.798  28.121  39.860  0.00  0.00    +0.149 C 
ENDBRANCH  39  47
ENDBRANCH  38  41
BRANCH  38  48
ATOM     48  CB  SER A   2      51.606  26.807  35.306  0.00  0.00    +0.166 C 
BRANCH  48  49
ATOM     49  OG  SER A   2      51.016  25.604  35.756  0.00  0.00    -0.380 OA
ATOM     50  H   SER A   2      50.040  25.736  35.862  0.00  0.00    +0.211 HD
ENDBRANCH  48  49
ENDBRANCH  38  48
ENDBRANCH  34  38
ENDBRANCH  33  35
BRANCH  33  51
ATOM     51  CB  ASN A   3      46.767  27.151  37.602  0.00  0.00    +0.114 C 
BRANCH  51  52
ATOM     52  CG  ASN A   3      47.011  26.150  38.671  0.00  0.00    +0.222 C 
ATOM     53  OD1 ASN A   3      47.405  26.510  39.777  0.00  0.00    -0.275 OA
ATOM     54  ND2 ASN A   3      46.789  24.858  38.350  0.00  0.00    -0.329 N 
ATOM     55 HD21 ASN A   3      46.952  24.112  39.056  0.00  0.00    +0.145 HD
ATOM     56 HD22 ASN A   3      46.455  24.609  37.397  0.00  0.00    +0.145 HD
ENDBRANCH  51  52
ENDBRANCH  33  51
ENDBRANCH  29  33
ENDBRANCH   1  31
BRANCH   1  57
ATOM     57  CB  LEU A   4      49.464  31.410  40.907  0.00  0.00    +0.029 C 
BRANCH  57  58
ATOM     58  CG  LEU A   4      49.069  30.254  41.825  0.00  0.00    +0.002 C 
ATOM     59  CD2 LEU A   4      50.165  29.855  42.782  0.00  0.00    +0.000 C 
ATOM     60  CD1 LEU A   4      47.780  30.577  42.585  0.00  0.00    +0.000 C 
ENDBRANCH  57  58
ENDBRANCH   1  57
TORSDOF 22
REMARK  Name = ../refined-set-2016/3d7z/3d7z_pocket.pdb
REMARK  249 active torsions:
REMARK  status: ('A' for Active; 'I' for Inactive)
REMARK    1  A    between atoms: _1  and  _3
REMARK    2  A    between atoms: _3  and  _4
REMARK    3  A    between atoms: _3  and  _6
REMARK    4  A    between atoms: _9  and  _11
REMARK    5  A    between atoms: _11  and  _12
REMARK    6  A    between atoms: _14  and  _16
REMARK    7  A    between atoms: _16  and  _17
REMARK    8  A    between atoms: _16  and  _19
REMARK    9  A    between atoms: _19  and  _20
REMARK   10  A    between atoms: _22  and  _24
REMARK   11  A    between atoms: _24  and  _25
REMARK   12  A    between atoms: _28  and  _30
REMARK   13  A    between atoms: _30  and  _31
REMARK   14  A    between atoms: _30  and  _33
REMARK   15  A    between atoms: _33  and  _34
REMARK   16  A    between atoms: _39  and  _40
REMARK   17  A    between atoms: _42  and  _44
REMARK   18  A    between atoms: _44  and  _45
REMARK   19  A    between atoms: _47  and  _49
REMARK   20  A    between atoms: _49  and  _50
REMARK   21  A    between atoms: _49  and  _52
REMARK   22  A    between atoms: _52  and  _53
REMARK   23  A    between atoms: _55  and  _57
REMARK   24  A    between atoms: _57  and  _58
REMARK   25  A    between atoms: _57  and  _60
REMARK   26  A    between atoms: _63  and  _65
REMARK   27  A    between atoms: _65  and  _66
REMARK   28  A    between atoms: _65  and  _68
REMARK   29  A    between atoms: _70  and  _72
REMARK   30  A    between atoms: _72  and  _73
REMARK   31  A    between atoms: _76  and  _78
REMARK   32  A    between atoms: _78  and  _79
REMARK   33  A    between atoms: _78  and  _81
REMARK   34  A    between atoms: _81  and  _82
REMARK   35  A    between atoms: _82  and  _83
REMARK   36  A    between atoms: _83  and  _84
REMARK   37  A    between atoms: _93  and  _95
REMARK   38  A    between atoms: _95  and  _96
REMARK   39  A    between atoms: _95  and  _98
REMARK   40  A    between atoms: _101  and  _103
REMARK   41  A    between atoms: _103  and  _104
REMARK   42  A    between atoms: _107  and  _109
REMARK   43  A    between atoms: _109  and  _110
REMARK   44  A    between atoms: _109  and  _112
REMARK   45  A    between atoms: _115  and  _117
REMARK   46  A    between atoms: _117  and  _118
REMARK   47  A    between atoms: _117  and  _120
REMARK   48  A    between atoms: _120  and  _121
REMARK   49  A    between atoms: _121  and  _122
REMARK   50  A    between atoms: _122  and  _123
REMARK   51  A    between atoms: _123  and  _124
REMARK   52  A    between atoms: _128  and  _130
REMARK   53  A    between atoms: _130  and  _131
REMARK   54  A    between atoms: _130  and  _133
REMARK   55  A    between atoms: _133  and  _134
REMARK   56  A    between atoms: _134  and  _135
REMARK   57  A    between atoms: _135  and  _136
REMARK   58  A    between atoms: _136  and  _137
REMARK   59  A    between atoms: _141  and  _143
REMARK   60  A    between atoms: _143  and  _144
REMARK   61  A    between atoms: _143  and  _146
REMARK   62  A    between atoms: _146  and  _147
REMARK   63  A    between atoms: _150  and  _152
REMARK   64  A    between atoms: _152  and  _153
REMARK   65  A    between atoms: _152  and  _155
REMARK   66  A    between atoms: _155  and  _156
REMARK   67  A    between atoms: _156  and  _157
REMARK   68  A    between atoms: _157  and  _158
REMARK   69  A    between atoms: _167  and  _169
REMARK   70  A    between atoms: _169  and  _170
REMARK   71  A    between atoms: _169  and  _172
REMARK   72  A    between atoms: _172  and  _173
REMARK   73  A    between atoms: _173  and  _174
REMARK   74  A    between atoms: _174  and  _175
REMARK   75  A    between atoms: _184  and  _186
REMARK   76  A    between atoms: _186  and  _187
REMARK   77  A    between atoms: _186  and  _189
REMARK   78  A    between atoms: _189  and  _190
REMARK   79  A    between atoms: _190  and  _191
REMARK   80  A    between atoms: _194  and  _196
REMARK   81  A    between atoms: _196  and  _197
REMARK   82  A    between atoms: _196  and  _199
REMARK   83  A    between atoms: _199  and  _200
REMARK   84  A    between atoms: _203  and  _205
REMARK   85  A    between atoms: _205  and  _206
REMARK   86  A    between atoms: _205  and  _208
REMARK   87  A    between atoms: _208  and  _209
REMARK   88  A    between atoms: _209  and  _210
REMARK   89  A    between atoms: _210  and  _211
REMARK   90  A    between atoms: _220  and  _222
REMARK   91  A    between atoms: _222  and  _223
REMARK   92  A    between atoms: _222  and  _225
REMARK   93  A    between atoms: _225  and  _226
REMARK   94  A    between atoms: _229  and  _231
REMARK   95  A    between atoms: _231  and  _232
REMARK   96  A    between atoms: _231  and  _234
REMARK   97  A    between atoms: _234  and  _235
REMARK   98  A    between atoms: _238  and  _240
REMARK   99  A    between atoms: _240  and  _241
REMARK  100  A    between atoms: _240  and  _243
REMARK  101  A    between atoms: _243  and  _244
REMARK  102  A    between atoms: _244  and  _245
REMARK  103  A    between atoms: _245  and  _246
REMARK  104  A    between atoms: _246  and  _247
REMARK  105  A    between atoms: _251  and  _253
REMARK  106  A    between atoms: _253  and  _254
REMARK  107  A    between atoms: _253  and  _256
REMARK  108  A    between atoms: _256  and  _257
REMARK  109  A    between atoms: _257  and  _258
REMARK  110  A    between atoms: _260  and  _262
REMARK  111  A    between atoms: _262  and  _263
REMARK  112  A    between atoms: _262  and  _265
REMARK  113  A    between atoms: _268  and  _270
REMARK  114  A    between atoms: _270  and  _271
REMARK  115  A    between atoms: _270  and  _273
REMARK  116  A    between atoms: _273  and  _274
REMARK  117  A    between atoms: _277  and  _279
REMARK  118  A    between atoms: _279  and  _280
REMARK  119  A    between atoms: _282  and  _284
REMARK  120  A    between atoms: _284  and  _285
REMARK  121  A    between atoms: _284  and  _287
REMARK  122  A    between atoms: _287  and  _288
REMARK  123  A    between atoms: _291  and  _293
REMARK  124  A    between atoms: _293  and  _294
REMARK  125  A    between atoms: _293  and  _296
REMARK  126  A    between atoms: _296  and  _297
REMARK  127  A    between atoms: _300  and  _302
REMARK  128  A    between atoms: _302  and  _303
REMARK  129  A    between atoms: _302  and  _305
REMARK  130  A    between atoms: _305  and  _306
REMARK  131  A    between atoms: _309  and  _311
REMARK  132  A    between atoms: _311  and  _312
REMARK  133  A    between atoms: _311  and  _314
REMARK  134  A    between atoms: _314  and  _315
REMARK  135  A    between atoms: _320  and  _321
REMARK  136  A    between atoms: _323  and  _325
REMARK  137  A    between atoms: _325  and  _326
REMARK  138  A    between atoms: _325  and  _328
REMARK  139  A    between atoms: _328  and  _329
REMARK  140  A    between atoms: _332  and  _334
REMARK  141  A    between atoms: _334  and  _335
REMARK  142  A    between atoms: _334  and  _337
REMARK  143  A    between atoms: _340  and  _342
REMARK  144  A    between atoms: _342  and  _343
REMARK  145  A    between atoms: _342  and  _345
REMARK  146  A    between atoms: _345  and  _346
REMARK  147  A    between atoms: _349  and  _351
REMARK  148  A    between atoms: _351  and  _352
REMARK  149  A    between atoms: _351  and  _354
REMARK  150  A    between atoms: _354  and  _355
REMARK  151  A    between atoms: _360  and  _362
REMARK  152  A    between atoms: _362  and  _363
REMARK  153  A    between atoms: _362  and  _365
REMARK  154  A    between atoms: _365  and  _366
REMARK  155  A    between atoms: _369  and  _371
REMARK  156  A    between atoms: _371  and  _372
REMARK  157  A    between atoms: _371  and  _374
REMARK  158  A    between atoms: _374  and  _375
REMARK  159  A    between atoms: _375  and  _376
REMARK  160  A    between atoms: _378  and  _380
REMARK  161  A    between atoms: _380  and  _381
REMARK  162  A    between atoms: _383  and  _385
REMARK  163  A    between atoms: _385  and  _386
REMARK  164  A    between atoms: _389  and  _391
REMARK  165  A    between atoms: _391  and  _392
REMARK  166  A    between atoms: _391  and  _394
REMARK  167  A    between atoms: _394  and  _395
REMARK  168  A    between atoms: _398  and  _400
REMARK  169  A    between atoms: _400  and  _401
REMARK  170  A    between atoms: _400  and  _403
REMARK  171  A    between atoms: _403  and  _404
REMARK  172  A    between atoms: _407  and  _409
REMARK  173  A    between atoms: _409  and  _410
REMARK  174  A    between atoms: _409  and  _412
REMARK  175  A    between atoms: _412  and  _413
REMARK  176  A    between atoms: _418  and  _420
REMARK  177  A    between atoms: _420  and  _421
REMARK  178  A    between atoms: _420  and  _423
REMARK  179  A    between atoms: _423  and  _424
REMARK  180  A    between atoms: _429  and  _431
REMARK  181  A    between atoms: _431  and  _432
REMARK  182  A    between atoms: _431  and  _434
REMARK  183  A    between atoms: _434  and  _435
REMARK  184  A    between atoms: _438  and  _440
REMARK  185  A    between atoms: _440  and  _441
REMARK  186  A    between atoms: _440  and  _443
REMARK  187  A    between atoms: _443  and  _444
REMARK  188  A    between atoms: _447  and  _449
REMARK  189  A    between atoms: _449  and  _450
REMARK  190  A    between atoms: _449  and  _452
REMARK  191  A    between atoms: _452  and  _453
REMARK  192  A    between atoms: _459  and  _460
REMARK  193  A    between atoms: _465  and  _467
REMARK  194  A    between atoms: _467  and  _468
REMARK  195  A    between atoms: _467  and  _470
REMARK  196  A    between atoms: _470  and  _471
REMARK  197  A    between atoms: _473  and  _475
REMARK  198  A    between atoms: _475  and  _476
REMARK  199  A    between atoms: _475  and  _478
REMARK  200  A    between atoms: _478  and  _479
REMARK  201  A    between atoms: _484  and  _486
REMARK  202  A    between atoms: _486  and  _487
REMARK  203  A    between atoms: _486  and  _489
REMARK  204  A    between atoms: _489  and  _490
REMARK  205  A    between atoms: _493  and  _495
REMARK  206  A    between atoms: _495  and  _496
REMARK  207  A    between atoms: _499  and  _501
REMARK  208  A    between atoms: _501  and  _502
REMARK  209  A    between atoms: _501  and  _504
REMARK  210  A    between atoms: _507  and  _509
REMARK  211  A    between atoms: _509  and  _510
REMARK  212  A    between atoms: _509  and  _512
REMARK  213  A    between atoms: _512  and  _513
REMARK  214  A    between atoms: _518  and  _520
REMARK  215  A    between atoms: _520  and  _521
REMARK  216  A    between atoms: _520  and  _523
REMARK  217  A    between atoms: _523  and  _524
REMARK  218  A    between atoms: _524  and  _525
REMARK  219  A    between atoms: _525  and  _526
REMARK  220  A    between atoms: _526  and  _527
REMARK  221  A    between atoms: _531  and  _533
REMARK  222  A    between atoms: _533  and  _534
REMARK  223  A    between atoms: _533  and  _536
REMARK  224  A    between atoms: _536  and  _537
REMARK  225  A    between atoms: _540  and  _542
REMARK  226  A    between atoms: _542  and  _543
REMARK  227  A    between atoms: _542  and  _545
REMARK  228  A    between atoms: _545  and  _546
REMARK  229  A    between atoms: _549  and  _551
REMARK  230  A    between atoms: _551  and  _552
REMARK  231  A    between atoms: _551  and  _554
REMARK  232  A    between atoms: _554  and  _555
REMARK  233  A    between atoms: _558  and  _560
REMARK  234  A    between atoms: _560  and  _561
REMARK  235  A    between atoms: _560  and  _563
REMARK  236  A    between atoms: _563  and  _564
REMARK  237  A    between atoms: _570  and  _572
REMARK  238  A    between atoms: _572  and  _573
REMARK  239  A    between atoms: _575  and  _577
REMARK  240  A    between atoms: _577  and  _578
REMARK  241  A    between atoms: _577  and  _580
REMARK  242  A    between atoms: _580  and  _581
REMARK  243  A    between atoms: _584  and  _586
REMARK  244  A    between atoms: _586  and  _587
REMARK  245  A    between atoms: _592  and  _593
REMARK  246  A    between atoms: _592  and  _595
REMARK  247  A    between atoms: _595  and  _596
REMARK  248  A    between atoms: _596  and  _597
REMARK  249  A    between atoms: _597  and  _598
REMARK                            x       y       z     vdW  Elec       q    Type
REMARK                         _______ _______ _______ _____ _____    ______ ____
ROOT
ATOM      1  CA  PHE A   5      40.364  25.001  40.700  0.00  0.00    +0.153 C 
ENDROOT
BRANCH   1   2
ATOM      2  C   PHE A   5      39.163  24.131  40.333  0.00  0.00    +0.241 C 
ATOM      3  N   GLY A   6      38.967  23.051  41.090  0.00  0.00    -0.295 N 
ATOM      4  H   GLY A   6      39.695  22.805  41.791  0.00  0.00    +0.150 HD
ATOM      5  O   PHE A   5      38.430  24.445  39.396  0.00  0.00    -0.273 OA
BRANCH   3   6
ATOM      6  CA  GLY A   6      37.784  22.189  40.991  0.00  0.00    +0.176 C 
BRANCH   6   7
ATOM      7  C   GLY A   6      37.530  21.458  39.680  0.00  0.00    +0.243 C 
ATOM      8  O   GLY A   6      36.432  20.910  39.472  0.00  0.00    -0.273 OA
ATOM      9  N   LEU A   7      38.511  21.451  38.784  0.00  0.00    -0.297 N 
ATOM     10  H   LEU A   7      39.406  21.934  39.002  0.00  0.00    +0.150 HD
BRANCH   9  11
ATOM     11  CA  LEU A   7      38.353  20.774  37.494  0.00  0.00    +0.149 C 
BRANCH  11  12
ATOM     12  C   LEU A   7      39.144  19.468  37.472  0.00  0.00    +0.241 C 
ATOM     13  N   ALA A   8      39.951  19.280  38.524  0.00  0.00    -0.297 N 
ATOM     14  H   ALA A   8      39.963  20.014  39.261  0.00  0.00    +0.150 HD
ATOM     15  O   LEU A   7      39.025  18.669  36.537  0.00  0.00    -0.273 OA
BRANCH  13  16
ATOM     16  CA  ALA A   8      40.821  18.110  38.712  0.00  0.00    +0.149 C 
ATOM     17  CB  ALA A   8      40.013  16.901  39.252  0.00  0.00    +0.031 C 
BRANCH  16  18
ATOM     18  C   ALA A   8      41.677  17.768  37.466  0.00  0.00    +0.244 C 
ATOM     19  O   ALA A   8      42.742  18.371  37.291  0.00  0.00    -0.273 OA
ATOM     20  N   ARG A   9      41.205  16.830  36.636  0.00  0.00    -0.283 N 
ATOM     21  H   ARG A   9      40.298  16.393  36.896  0.00  0.00    +0.155 HD
ATOM     22  CA  ARG A   9      41.845  16.342  35.372  0.00  0.00    +0.070 C 
BRANCH  22  23
ATOM     23  C   ARG A   9      43.204  15.541  35.472  0.00  0.00    +0.244 C 
ATOM     24  O   ARG A   9      43.585  15.083  36.566  0.00  0.00    -0.282 OA
ENDBRANCH  22  23
BRANCH  22  25
ATOM     25  CB  ARG A   9      41.798  17.400  34.227  0.00  0.00    +0.048 C 
BRANCH  25  26
ATOM     26  CG  ARG A   9      42.953  18.424  34.142  0.00  0.00    +0.049 C 
BRANCH  26  27
ATOM     27  CD  ARG A   9      42.508  19.877  34.409  0.00  0.00    +0.174 C 
BRANCH  27  28
ATOM     28  NE  ARG A   9      43.491  20.850  33.911  0.00  0.00    -0.265 N 
ATOM     29  HE  ARG A   9      44.477  20.734  34.222  0.00  0.00    +0.259 HD
ATOM     30  CZ  ARG A   9      43.223  21.871  33.091  0.00  0.00    +0.342 C 
ATOM     31  NH2 ARG A   9      44.206  22.679  32.700  0.00  0.00    -0.292 N 
ATOM     32 HH21 ARG A   9      45.178  22.515  33.032  0.00  0.00    +0.255 HD
ATOM     33 HH22 ARG A   9      44.002  23.475  32.062  0.00  0.00    +0.255 HD
ATOM     34  NH1 ARG A   9      41.982  22.110  32.671  0.00  0.00    -0.292 N 
ATOM     35 HH11 ARG A   9      41.201  21.497  32.981  0.00  0.00    +0.255 HD
ATOM     36 HH12 ARG A   9      41.794  22.910  32.033  0.00  0.00    +0.255 HD
ENDBRANCH  27  28
ENDBRANCH  26  27
ENDBRANCH  25  26
ENDBRANCH  22  25
ENDBRANCH  16  18
ENDBRANCH  13  16
ENDBRANCH  11  12
BRANCH  11  37
ATOM     37  CB  LEU A   7      38.792  21.675  36.339  0.00  0.00    +0.029 C 
BRANCH  37  38
ATOM     38  CG  LEU A   7      37.863  22.802  35.866  0.00  0.00    +0.002 C 
ATOM     39  CD2 LEU A   7      36.409  22.360  35.736  0.00  0.00    +0.000 C 
ATOM     40  CD1 LEU A   7      38.356  23.350  34.534  0.00  0.00    +0.000 C 
ENDBRANCH  37  38
ENDBRANCH  11  37
ENDBRANCH   9  11
ENDBRANCH   6   7
ENDBRANCH   3   6
ENDBRANCH   1   2
BRANCH   1  42
ATOM     41  C   ASP A   4      41.428  25.198  38.511  0.00  0.00    +0.241 C 
ATOM     42  N   PHE A   5      40.829  25.775  39.533  0.00  0.00    -0.297 N 
ATOM     43  H   PHE A   5      40.680  26.804  39.517  0.00  0.00    +0.150 HD
ATOM     44  O   ASP A   4      41.659  23.991  38.480  0.00  0.00    -0.273 OA
BRANCH  41  45
ATOM     45  CA  ASP A   4      41.795  26.092  37.317  0.00  0.00    +0.160 C 
BRANCH  45  48
ATOM     46  C   LEU A   3      42.824  28.103  38.315  0.00  0.00    +0.241 C 
ATOM     47  O   LEU A   3      43.629  27.465  38.982  0.00  0.00    -0.273 OA
ATOM     48  N   ASP A   4      41.856  27.542  37.591  0.00  0.00    -0.297 N 
ATOM     49  H   ASP A   4      41.110  28.153  37.201  0.00  0.00    +0.150 HD
BRANCH  46  50
ATOM     50  CA  LEU A   3      42.959  29.617  38.181  0.00  0.00    +0.149 C 
BRANCH  50  53
ATOM     51  C   ILE A   2      43.062  31.013  40.205  0.00  0.00    +0.241 C 
ATOM     52  O   ILE A   2      41.868  31.347  40.145  0.00  0.00    -0.273 OA
ATOM     53  N   LEU A   3      43.665  30.237  39.308  0.00  0.00    -0.297 N 
ATOM     54  H   LEU A   3      44.685  30.062  39.411  0.00  0.00    +0.150 HD
BRANCH  51  55
ATOM     55  CA  ILE A   2      43.926  31.473  41.331  0.00  0.00    +0.148 C 
BRANCH  55  57
ATOM     56  C   LYS A   1      44.620  33.777  40.787  0.00  0.00    +0.238 C 
ATOM     57  N   ILE A   2      43.828  32.935  41.445  0.00  0.00    -0.297 N 
ATOM     58  H   ILE A   2      43.101  33.332  42.073  0.00  0.00    +0.150 HD
ATOM     59  O   LYS A   1      45.543  33.424  40.058  0.00  0.00    -0.274 OA
BRANCH  56  60
ATOM     60  CA  LYS A   1      44.318  35.254  40.974  0.00  0.00    +0.145 C 
BRANCH  60  61
ATOM     61  N   LYS A   1      45.575  35.987  41.010  0.00  0.00    -0.238 NA
ATOM     62  H   LYS A   1      46.264  35.858  40.242  0.00  0.00    +0.142 HD
ENDBRANCH  60  61
BRANCH  60  63
ATOM     63  CB  LYS A   1      43.439  35.779  39.842  0.00  0.00    +0.026 C 
BRANCH  63  64
ATOM     64  CG  LYS A   1      42.818  37.160  40.139  0.00  0.00    -0.000 C 
BRANCH  64  65
ATOM     65  CD  LYS A   1      41.998  37.659  38.947  0.00  0.00    -0.024 C 
BRANCH  65  66
ATOM     66  CE  LYS A   1      41.655  39.165  39.025  0.00  0.00    -0.086 C 
BRANCH  66  67
ATOM     67  NZ  LYS A   1      41.003  39.549  40.334  0.00  0.00    +0.380 N 
ATOM     68  HZ1 LYS A   1      41.648  39.328  41.119  0.00  0.00    -0.089 HD
ATOM     69  HZ2 LYS A   1      40.119  39.014  40.449  0.00  0.00    -0.089 HD
ATOM     70  HZ3 LYS A   1      40.795  40.568  40.331  0.00  0.00    -0.089 HD
ENDBRANCH  66  67
ENDBRANCH  65  66
ENDBRANCH  64  65
ENDBRANCH  63  64
ENDBRANCH  60  63
ENDBRANCH  56  60
ENDBRANCH  55  57
BRANCH  55  71
ATOM     71  CB  ILE A   2      43.456  30.779  42.631  0.00  0.00    +0.027 C 
ATOM     72  CG2 ILE A   2      43.500  29.197  42.495  0.00  0.00    +0.002 C 
BRANCH  71  73
ATOM     73  CG1 ILE A   2      44.272  31.290  43.817  0.00  0.00    +0.002 C 
ATOM     74  CD1 ILE A   2      43.782  30.710  45.204  0.00  0.00    +0.000 C 
ENDBRANCH  71  73
ENDBRANCH  55  71
ENDBRANCH  51  55
ENDBRANCH  50  53
BRANCH  50  75
ATOM     75  CB  LEU A   3      43.738  29.836  36.866  0.00  0.00    +0.029 C 
BRANCH  75  76
ATOM     76  CG  LEU A   3      44.479  31.140  36.558  0.00  0.00    +0.002 C 
ATOM     77  CD2 LEU A   3      43.489  32.289  36.366  0.00  0.00    +0.000 C 
ATOM     78  CD1 LEU A   3      45.327  30.926  35.314  0.00  0.00    +0.000 C 
ENDBRANCH  75  76
ENDBRANCH  50  75
ENDBRANCH  46  50
ENDBRANCH  45  48
BRANCH  45  79
ATOM     79  CB  ASP A   4      43.092  25.581  36.651  0.00  0.00    +0.143 C 
BRANCH  79  80
ATOM     80  CG  ASP A   4      43.218  26.024  35.201  0.00  0.00    +0.367 C 
ATOM     81  OD2 ASP A   4      44.351  25.956  34.664  0.00  0.00    -0.246 OA
ATOM     82  OD1 ASP A   4      42.188  26.422  34.575  0.00  0.00    -0.246 OA
ENDBRANCH  79  80
ENDBRANCH  45  79
ENDBRANCH  41  45
ENDBRANCH   1  42
BRANCH   1  83
ATOM     83  CB  PHE A   5      39.948  25.950  41.820  0.00  0.00    +0.055 C 
BRANCH  83  84
ATOM     84  CG  PHE A   5      39.151  27.115  41.326  0.00  0.00    -0.020 A 
ATOM     85  CD2 PHE A   5      37.781  27.001  41.137  0.00  0.00    -0.004 A 
ATOM     86  CE2 PHE A   5      37.041  28.056  40.646  0.00  0.00    -0.000 A 
ATOM     87  CZ  PHE A   5      37.682  29.264  40.326  0.00  0.00    -0.000 A 
ATOM     88  CE1 PHE A   5      39.051  29.384  40.503  0.00  0.00    -0.000 A 
ATOM     89  CD1 PHE A   5      39.786  28.311  40.994  0.00  0.00    -0.004 A 
ENDBRANCH  83  84
ENDBRANCH   1  83
TORSDOF 36
REMARK  Name = ../refined-set-2016/3d7z/3d7z_pocket.pdb
REMARK  249 active torsions:
REMARK  status: ('A' for Active; 'I' for Inactive)
REMARK    1  A    between atoms: _1  and  _3
REMARK    2  A    between atoms: _3  and  _4
REMARK    3  A    between atoms: _3  and  _6
REMARK    4  A    between atoms: _9  and  _11
REMARK    5  A    between atoms: _11  and  _12
REMARK    6  A    between atoms: _14  and  _16
REMARK    7  A    between atoms: _16  and  _17
REMARK    8  A    between atoms: _16  and  _19
REMARK    9  A    between atoms: _19  and  _20
REMARK   10  A    between atoms: _22  and  _24
REMARK   11  A    between atoms: _24  and  _25
REMARK   12  A    between atoms: _28  and  _30
REMARK   13  A    between atoms: _30  and  _31
REMARK   14  A    between atoms: _30  and  _33
REMARK   15  A    between atoms: _33  and  _34
REMARK   16  A    between atoms: _39  and  _40
REMARK   17  A    between atoms: _42  and  _44
REMARK   18  A    between atoms: _44  and  _45
REMARK   19  A    between atoms: _47  and  _49
REMARK   20  A    between atoms: _49  and  _50
REMARK   21  A    between atoms: _49  and  _52
REMARK   22  A    between atoms: _52  and  _53
REMARK   23  A    between atoms: _55  and  _57
REMARK   24  A    between atoms: _57  and  _58
REMARK   25  A    between atoms: _57  and  _60
REMARK   26  A    between atoms: _63  and  _65
REMARK   27  A    between atoms: _65  and  _66
REMARK   28  A    between atoms: _65  and  _68
REMARK   29  A    between atoms: _70  and  _72
REMARK   30  A    between atoms: _72  and  _73
REMARK   31  A    between atoms: _76  and  _78
REMARK   32  A    between atoms: _78  and  _79
REMARK   33  A    between atoms: _78  and  _81
REMARK   34  A    between atoms: _81  and  _82
REMARK   35  A    between atoms: _82  and  _83
REMARK   36  A    between atoms: _83  and  _84
REMARK   37  A    between atoms: _93  and  _95
REMARK   38  A    between atoms: _95  and  _96
REMARK   39  A    between atoms: _95  and  _98
REMARK   40  A    between atoms: _101  and  _103
REMARK   41  A    between atoms: _103  and  _104
REMARK   42  A    between atoms: _107  and  _109
REMARK   43  A    between atoms: _109  and  _110
REMARK   44  A    between atoms: _109  and  _112
REMARK   45  A    between atoms: _115  and  _117
REMARK   46  A    between atoms: _117  and  _118
REMARK   47  A    between atoms: _117  and  _120
REMARK   48  A    between atoms: _120  and  _121
REMARK   49  A    between atoms: _121  and  _122
REMARK   50  A    between atoms: _122  and  _123
REMARK   51  A    between atoms: _123  and  _124
REMARK   52  A    between atoms: _128  and  _130
REMARK   53  A    between atoms: _130  and  _131
REMARK   54  A    between atoms: _130  and  _133
REMARK   55  A    between atoms: _133  and  _134
REMARK   56  A    between atoms: _134  and  _135
REMARK   57  A    between atoms: _135  and  _136
REMARK   58  A    between atoms: _136  and  _137
REMARK   59  A    between atoms: _141  and  _143
REMARK   60  A    between atoms: _143  and  _144
REMARK   61  A    between atoms: _143  and  _146
REMARK   62  A    between atoms: _146  and  _147
REMARK   63  A    between atoms: _150  and  _152
REMARK   64  A    between atoms: _152  and  _153
REMARK   65  A    between atoms: _152  and  _155
REMARK   66  A    between atoms: _155  and  _156
REMARK   67  A    between atoms: _156  and  _157
REMARK   68  A    between atoms: _157  and  _158
REMARK   69  A    between atoms: _167  and  _169
REMARK   70  A    between atoms: _169  and  _170
REMARK   71  A    between atoms: _169  and  _172
REMARK   72  A    between atoms: _172  and  _173
REMARK   73  A    between atoms: _173  and  _174
REMARK   74  A    between atoms: _174  and  _175
REMARK   75  A    between atoms: _184  and  _186
REMARK   76  A    between atoms: _186  and  _187
REMARK   77  A    between atoms: _186  and  _189
REMARK   78  A    between atoms: _189  and  _190
REMARK   79  A    between atoms: _190  and  _191
REMARK   80  A    between atoms: _194  and  _196
REMARK   81  A    between atoms: _196  and  _197
REMARK   82  A    between atoms: _196  and  _199
REMARK   83  A    between atoms: _199  and  _200
REMARK   84  A    between atoms: _203  and  _205
REMARK   85  A    between atoms: _205  and  _206
REMARK   86  A    between atoms: _205  and  _208
REMARK   87  A    between atoms: _208  and  _209
REMARK   88  A    between atoms: _209  and  _210
REMARK   89  A    between atoms: _210  and  _211
REMARK   90  A    between atoms: _220  and  _222
REMARK   91  A    between atoms: _222  and  _223
REMARK   92  A    between atoms: _222  and  _225
REMARK   93  A    between atoms: _225  and  _226
REMARK   94  A    between atoms: _229  and  _231
REMARK   95  A    between atoms: _231  and  _232
REMARK   96  A    between atoms: _231  and  _234
REMARK   97  A    between atoms: _234  and  _235
REMARK   98  A    between atoms: _238  and  _240
REMARK   99  A    between atoms: _240  and  _241
REMARK  100  A    between atoms: _240  and  _243
REMARK  101  A    between atoms: _243  and  _244
REMARK  102  A    between atoms: _244  and  _245
REMARK  103  A    between atoms: _245  and  _246
REMARK  104  A    between atoms: _246  and  _247
REMARK  105  A    between atoms: _251  and  _253
REMARK  106  A    between atoms: _253  and  _254
REMARK  107  A    between atoms: _253  and  _256
REMARK  108  A    between atoms: _256  and  _257
REMARK  109  A    between atoms: _257  and  _258
REMARK  110  A    between atoms: _260  and  _262
REMARK  111  A    between atoms: _262  and  _263
REMARK  112  A    between atoms: _262  and  _265
REMARK  113  A    between atoms: _268  and  _270
REMARK  114  A    between atoms: _270  and  _271
REMARK  115  A    between atoms: _270  and  _273
REMARK  116  A    between atoms: _273  and  _274
REMARK  117  A    between atoms: _277  and  _279
REMARK  118  A    between atoms: _279  and  _280
REMARK  119  A    between atoms: _282  and  _284
REMARK  120  A    between atoms: _284  and  _285
REMARK  121  A    between atoms: _284  and  _287
REMARK  122  A    between atoms: _287  and  _288
REMARK  123  A    between atoms: _291  and  _293
REMARK  124  A    between atoms: _293  and  _294
REMARK  125  A    between atoms: _293  and  _296
REMARK  126  A    between atoms: _296  and  _297
REMARK  127  A    between atoms: _300  and  _302
REMARK  128  A    between atoms: _302  and  _303
REMARK  129  A    between atoms: _302  and  _305
REMARK  130  A    between atoms: _305  and  _306
REMARK  131  A    between atoms: _309  and  _311
REMARK  132  A    between atoms: _311  and  _312
REMARK  133  A    between atoms: _311  and  _314
REMARK  134  A    between atoms: _314  and  _315
REMARK  135  A    between atoms: _320  and  _321
REMARK  136  A    between atoms: _323  and  _325
REMARK  137  A    between atoms: _325  and  _326
REMARK  138  A    between atoms: _325  and  _328
REMARK  139  A    between atoms: _328  and  _329
REMARK  140  A    between atoms: _332  and  _334
REMARK  141  A    between atoms: _334  and  _335
REMARK  142  A    between atoms: _334  and  _337
REMARK  143  A    between atoms: _340  and  _342
REMARK  144  A    between atoms: _342  and  _343
REMARK  145  A    between atoms: _342  and  _345
REMARK  146  A    between atoms: _345  and  _346
REMARK  147  A    between atoms: _349  and  _351
REMARK  148  A    between atoms: _351  and  _352
REMARK  149  A    between atoms: _351  and  _354
REMARK  150  A    between atoms: _354  and  _355
REMARK  151  A    between atoms: _360  and  _362
REMARK  152  A    between atoms: _362  and  _363
REMARK  153  A    between atoms: _362  and  _365
REMARK  154  A    between atoms: _365  and  _366
REMARK  155  A    between atoms: _369  and  _371
REMARK  156  A    between atoms: _371  and  _372
REMARK  157  A    between atoms: _371  and  _374
REMARK  158  A    between atoms: _374  and  _375
REMARK  159  A    between atoms: _375  and  _376
REMARK  160  A    between atoms: _378  and  _380
REMARK  161  A    between atoms: _380  and  _381
REMARK  162  A    between atoms: _383  and  _385
REMARK  163  A    between atoms: _385  and  _386
REMARK  164  A    between atoms: _389  and  _391
REMARK  165  A    between atoms: _391  and  _392
REMARK  166  A    between atoms: _391  and  _394
REMARK  167  A    between atoms: _394  and  _395
REMARK  168  A    between atoms: _398  and  _400
REMARK  169  A    between atoms: _400  and  _401
REMARK  170  A    between atoms: _400  and  _403
REMARK  171  A    between atoms: _403  and  _404
REMARK  172  A    between atoms: _407  and  _409
REMARK  173  A    between atoms: _409  and  _410
REMARK  174  A    between atoms: _409  and  _412
REMARK  175  A    between atoms: _412  and  _413
REMARK  176  A    between atoms: _418  and  _420
REMARK  177  A    between atoms: _420  and  _421
REMARK  178  A    between atoms: _420  and  _423
REMARK  179  A    between atoms: _423  and  _424
REMARK  180  A    between atoms: _429  and  _431
REMARK  181  A    between atoms: _431  and  _432
REMARK  182  A    between atoms: _431  and  _434
REMARK  183  A    between atoms: _434  and  _435
REMARK  184  A    between atoms: _438  and  _440
REMARK  185  A    between atoms: _440  and  _441
REMARK  186  A    between atoms: _440  and  _443
REMARK  187  A    between atoms: _443  and  _444
REMARK  188  A    between atoms: _447  and  _449
REMARK  189  A    between atoms: _449  and  _450
REMARK  190  A    between atoms: _449  and  _452
REMARK  191  A    between atoms: _452  and  _453
REMARK  192  A    between atoms: _459  and  _460
REMARK  193  A    between atoms: _465  and  _467
REMARK  194  A    between atoms: _467  and  _468
REMARK  195  A    between atoms: _467  and  _470
REMARK  196  A    between atoms: _470  and  _471
REMARK  197  A    between atoms: _473  and  _475
REMARK  198  A    between atoms: _475  and  _476
REMARK  199  A    between atoms: _475  and  _478
REMARK  200  A    between atoms: _478  and  _479
REMARK  201  A    between atoms: _484  and  _486
REMARK  202  A    between atoms: _486  and  _487
REMARK  203  A    between atoms: _486  and  _489
REMARK  204  A    between atoms: _489  and  _490
REMARK  205  A    between atoms: _493  and  _495
REMARK  206  A    between atoms: _495  and  _496
REMARK  207  A    between atoms: _499  and  _501
REMARK  208  A    between atoms: _501  and  _502
REMARK  209  A    between atoms: _501  and  _504
REMARK  210  A    between atoms: _507  and  _509
REMARK  211  A    between atoms: _509  and  _510
REMARK  212  A    between atoms: _509  and  _512
REMARK  213  A    between atoms: _512  and  _513
REMARK  214  A    between atoms: _518  and  _520
REMARK  215  A    between atoms: _520  and  _521
REMARK  216  A    between atoms: _520  and  _523
REMARK  217  A    between atoms: _523  and  _524
REMARK  218  A    between atoms: _524  and  _525
REMARK  219  A    between atoms: _525  and  _526
REMARK  220  A    between atoms: _526  and  _527
REMARK  221  A    between atoms: _531  and  _533
REMARK  222  A    between atoms: _533  and  _534
REMARK  223  A    between atoms: _533  and  _536
REMARK  224  A    between atoms: _536  and  _537
REMARK  225  A    between atoms: _540  and  _542
REMARK  226  A    between atoms: _542  and  _543
REMARK  227  A    between atoms: _542  and  _545
REMARK  228  A    between atoms: _545  and  _546
REMARK  229  A    between atoms: _549  and  _551
REMARK  230  A    between atoms: _551  and  _552
REMARK  231  A    between atoms: _551  and  _554
REMARK  232  A    between atoms: _554  and  _555
REMARK  233  A    between atoms: _558  and  _560
REMARK  234  A    between atoms: _560  and  _561
REMARK  235  A    between atoms: _560  and  _563
REMARK  236  A    between atoms: _563  and  _564
REMARK  237  A    between atoms: _570  and  _572
REMARK  238  A    between atoms: _572  and  _573
REMARK  239  A    between atoms: _575  and  _577
REMARK  240  A    between atoms: _577  and  _578
REMARK  241  A    between atoms: _577  and  _580
REMARK  242  A    between atoms: _580  and  _581
REMARK  243  A    between atoms: _584  and  _586
REMARK  244  A    between atoms: _586  and  _587
REMARK  245  A    between atoms: _592  and  _593
REMARK  246  A    between atoms: _592  and  _595
REMARK  247  A    between atoms: _595  and  _596
REMARK  248  A    between atoms: _596  and  _597
REMARK  249  A    between atoms: _597  and  _598
REMARK                            x       y       z     vdW  Elec       q    Type
REMARK                         _______ _______ _______ _____ _____    ______ ____
ROOT
ATOM      1  O   HOH     1      37.824  37.170  35.898  0.00  0.00    +0.000 OA
ENDROOT
TORSDOF 0
REMARK  Name = ../refined-set-2016/3d7z/3d7z_pocket.pdb
REMARK  249 active torsions:
REMARK  status: ('A' for Active; 'I' for Inactive)
REMARK    1  A    between atoms: _1  and  _3
REMARK    2  A    between atoms: _3  and  _4
REMARK    3  A    between atoms: _3  and  _6
REMARK    4  A    between atoms: _9  and  _11
REMARK    5  A    between atoms: _11  and  _12
REMARK    6  A    between atoms: _14  and  _16
REMARK    7  A    between atoms: _16  and  _17
REMARK    8  A    between atoms: _16  and  _19
REMARK    9  A    between atoms: _19  and  _20
REMARK   10  A    between atoms: _22  and  _24
REMARK   11  A    between atoms: _24  and  _25
REMARK   12  A    between atoms: _28  and  _30
REMARK   13  A    between atoms: _30  and  _31
REMARK   14  A    between atoms: _30  and  _33
REMARK   15  A    between atoms: _33  and  _34
REMARK   16  A    between atoms: _39  and  _40
REMARK   17  A    between atoms: _42  and  _44
REMARK   18  A    between atoms: _44  and  _45
REMARK   19  A    between atoms: _47  and  _49
REMARK   20  A    between atoms: _49  and  _50
REMARK   21  A    between atoms: _49  and  _52
REMARK   22  A    between atoms: _52  and  _53
REMARK   23  A    between atoms: _55  and  _57
REMARK   24  A    between atoms: _57  and  _58
REMARK   25  A    between atoms: _57  and  _60
REMARK   26  A    between atoms: _63  and  _65
REMARK   27  A    between atoms: _65  and  _66
REMARK   28  A    between atoms: _65  and  _68
REMARK   29  A    between atoms: _70  and  _72
REMARK   30  A    between atoms: _72  and  _73
REMARK   31  A    between atoms: _76  and  _78
REMARK   32  A    between atoms: _78  and  _79
REMARK   33  A    between atoms: _78  and  _81
REMARK   34  A    between atoms: _81  and  _82
REMARK   35  A    between atoms: _82  and  _83
REMARK   36  A    between atoms: _83  and  _84
REMARK   37  A    between atoms: _93  and  _95
REMARK   38  A    between atoms: _95  and  _96
REMARK   39  A    between atoms: _95  and  _98
REMARK   40  A    between atoms: _101  and  _103
REMARK   41  A    between atoms: _103  and  _104
REMARK   42  A    between atoms: _107  and  _109
REMARK   43  A    between atoms: _109  and  _110
REMARK   44  A    between atoms: _109  and  _112
REMARK   45  A    between atoms: _115  and  _117
REMARK   46  A    between atoms: _117  and  _118
REMARK   47  A    between atoms: _117  and  _120
REMARK   48  A    between atoms: _120  and  _121
REMARK   49  A    between atoms: _121  and  _122
REMARK   50  A    between atoms: _122  and  _123
REMARK   51  A    between atoms: _123  and  _124
REMARK   52  A    between atoms: _128  and  _130
REMARK   53  A    between atoms: _130  and  _131
REMARK   54  A    between atoms: _130  and  _133
REMARK   55  A    between atoms: _133  and  _134
REMARK   56  A    between atoms: _134  and  _135
REMARK   57  A    between atoms: _135  and  _136
REMARK   58  A    between atoms: _136  and  _137
REMARK   59  A    between atoms: _141  and  _143
REMARK   60  A    between atoms: _143  and  _144
REMARK   61  A    between atoms: _143  and  _146
REMARK   62  A    between atoms: _146  and  _147
REMARK   63  A    between atoms: _150  and  _152
REMARK   64  A    between atoms: _152  and  _153
REMARK   65  A    between atoms: _152  and  _155
REMARK   66  A    between atoms: _155  and  _156
REMARK   67  A    between atoms: _156  and  _157
REMARK   68  A    between atoms: _157  and  _158
REMARK   69  A    between atoms: _167  and  _169
REMARK   70  A    between atoms: _169  and  _170
REMARK   71  A    between atoms: _169  and  _172
REMARK   72  A    between atoms: _172  and  _173
REMARK   73  A    between atoms: _173  and  _174
REMARK   74  A    between atoms: _174  and  _175
REMARK   75  A    between atoms: _184  and  _186
REMARK   76  A    between atoms: _186  and  _187
REMARK   77  A    between atoms: _186  and  _189
REMARK   78  A    between atoms: _189  and  _190
REMARK   79  A    between atoms: _190  and  _191
REMARK   80  A    between atoms: _194  and  _196
REMARK   81  A    between atoms: _196  and  _197
REMARK   82  A    between atoms: _196  and  _199
REMARK   83  A    between atoms: _199  and  _200
REMARK   84  A    between atoms: _203  and  _205
REMARK   85  A    between atoms: _205  and  _206
REMARK   86  A    between atoms: _205  and  _208
REMARK   87  A    between atoms: _208  and  _209
REMARK   88  A    between atoms: _209  and  _210
REMARK   89  A    between atoms: _210  and  _211
REMARK   90  A    between atoms: _220  and  _222
REMARK   91  A    between atoms: _222  and  _223
REMARK   92  A    between atoms: _222  and  _225
REMARK   93  A    between atoms: _225  and  _226
REMARK   94  A    between atoms: _229  and  _231
REMARK   95  A    between atoms: _231  and  _232
REMARK   96  A    between atoms: _231  and  _234
REMARK   97  A    between atoms: _234  and  _235
REMARK   98  A    between atoms: _238  and  _240
REMARK   99  A    between atoms: _240  and  _241
REMARK  100  A    between atoms: _240  and  _243
REMARK  101  A    between atoms: _243  and  _244
REMARK  102  A    between atoms: _244  and  _245
REMARK  103  A    between atoms: _245  and  _246
REMARK  104  A    between atoms: _246  and  _247
REMARK  105  A    between atoms: _251  and  _253
REMARK  106  A    between atoms: _253  and  _254
REMARK  107  A    between atoms: _253  and  _256
REMARK  108  A    between atoms: _256  and  _257
REMARK  109  A    between atoms: _257  and  _258
REMARK  110  A    between atoms: _260  and  _262
REMARK  111  A    between atoms: _262  and  _263
REMARK  112  A    between atoms: _262  and  _265
REMARK  113  A    between atoms: _268  and  _270
REMARK  114  A    between atoms: _270  and  _271
REMARK  115  A    between atoms: _270  and  _273
REMARK  116  A    between atoms: _273  and  _274
REMARK  117  A    between atoms: _277  and  _279
REMARK  118  A    between atoms: _279  and  _280
REMARK  119  A    between atoms: _282  and  _284
REMARK  120  A    between atoms: _284  and  _285
REMARK  121  A    between atoms: _284  and  _287
REMARK  122  A    between atoms: _287  and  _288
REMARK  123  A    between atoms: _291  and  _293
REMARK  124  A    between atoms: _293  and  _294
REMARK  125  A    between atoms: _293  and  _296
REMARK  126  A    between atoms: _296  and  _297
REMARK  127  A    between atoms: _300  and  _302
REMARK  128  A    between atoms: _302  and  _303
REMARK  129  A    between atoms: _302  and  _305
REMARK  130  A    between atoms: _305  and  _306
REMARK  131  A    between atoms: _309  and  _311
REMARK  132  A    between atoms: _311  and  _312
REMARK  133  A    between atoms: _311  and  _314
REMARK  134  A    between atoms: _314  and  _315
REMARK  135  A    between atoms: _320  and  _321
REMARK  136  A    between atoms: _323  and  _325
REMARK  137  A    between atoms: _325  and  _326
REMARK  138  A    between atoms: _325  and  _328
REMARK  139  A    between atoms: _328  and  _329
REMARK  140  A    between atoms: _332  and  _334
REMARK  141  A    between atoms: _334  and  _335
REMARK  142  A    between atoms: _334  and  _337
REMARK  143  A    between atoms: _340  and  _342
REMARK  144  A    between atoms: _342  and  _343
REMARK  145  A    between atoms: _342  and  _345
REMARK  146  A    between atoms: _345  and  _346
REMARK  147  A    between atoms: _349  and  _351
REMARK  148  A    between atoms: _351  and  _352
REMARK  149  A    between atoms: _351  and  _354
REMARK  150  A    between atoms: _354  and  _355
REMARK  151  A    between atoms: _360  and  _362
REMARK  152  A    between atoms: _362  and  _363
REMARK  153  A    between atoms: _362  and  _365
REMARK  154  A    between atoms: _365  and  _366
REMARK  155  A    between atoms: _369  and  _371
REMARK  156  A    between atoms: _371  and  _372
REMARK  157  A    between atoms: _371  and  _374
REMARK  158  A    between atoms: _374  and  _375
REMARK  159  A    between atoms: _375  and  _376
REMARK  160  A    between atoms: _378  and  _380
REMARK  161  A    between atoms: _380  and  _381
REMARK  162  A    between atoms: _383  and  _385
REMARK  163  A    between atoms: _385  and  _386
REMARK  164  A    between atoms: _389  and  _391
REMARK  165  A    between atoms: _391  and  _392
REMARK  166  A    between atoms: _391  and  _394
REMARK  167  A    between atoms: _394  and  _395
REMARK  168  A    between atoms: _398  and  _400
REMARK  169  A    between atoms: _400  and  _401
REMARK  170  A    between atoms: _400  and  _403
REMARK  171  A    between atoms: _403  and  _404
REMARK  172  A    between atoms: _407  and  _409
REMARK  173  A    between atoms: _409  and  _410
REMARK  174  A    between atoms: _409  and  _412
REMARK  175  A    between atoms: _412  and  _413
REMARK  176  A    between atoms: _418  and  _420
REMARK  177  A    between atoms: _420  and  _421
REMARK  178  A    between atoms: _420  and  _423
REMARK  179  A    between atoms: _423  and  _424
REMARK  180  A    between atoms: _429  and  _431
REMARK  181  A    between atoms: _431  and  _432
REMARK  182  A    between atoms: _431  and  _434
REMARK  183  A    between atoms: _434  and  _435
REMARK  184  A    between atoms: _438  and  _440
REMARK  185  A    between atoms: _440  and  _441
REMARK  186  A    between atoms: _440  and  _443
REMARK  187  A    between atoms: _443  and  _444
REMARK  188  A    between atoms: _447  and  _449
REMARK  189  A    between atoms: _449  and  _450
REMARK  190  A    between atoms: _449  and  _452
REMARK  191  A    between atoms: _452  and  _453
REMARK  192  A    between atoms: _459  and  _460
REMARK  193  A    between atoms: _465  and  _467
REMARK  194  A    between atoms: _467  and  _468
REMARK  195  A    between atoms: _467  and  _470
REMARK  196  A    between atoms: _470  and  _471
REMARK  197  A    between atoms: _473  and  _475
REMARK  198  A    between atoms: _475  and  _476
REMARK  199  A    between atoms: _475  and  _478
REMARK  200  A    between atoms: _478  and  _479
REMARK  201  A    between atoms: _484  and  _486
REMARK  202  A    between atoms: _486  and  _487
REMARK  203  A    between atoms: _486  and  _489
REMARK  204  A    between atoms: _489  and  _490
REMARK  205  A    between atoms: _493  and  _495
REMARK  206  A    between atoms: _495  and  _496
REMARK  207  A    between atoms: _499  and  _501
REMARK  208  A    between atoms: _501  and  _502
REMARK  209  A    between atoms: _501  and  _504
REMARK  210  A    between atoms: _507  and  _509
REMARK  211  A    between atoms: _509  and  _510
REMARK  212  A    between atoms: _509  and  _512
REMARK  213  A    between atoms: _512  and  _513
REMARK  214  A    between atoms: _518  and  _520
REMARK  215  A    between atoms: _520  and  _521
REMARK  216  A    between atoms: _520  and  _523
REMARK  217  A    between atoms: _523  and  _524
REMARK  218  A    between atoms: _524  and  _525
REMARK  219  A    between atoms: _525  and  _526
REMARK  220  A    between atoms: _526  and  _527
REMARK  221  A    between atoms: _531  and  _533
REMARK  222  A    between atoms: _533  and  _534
REMARK  223  A    between atoms: _533  and  _536
REMARK  224  A    between atoms: _536  and  _537
REMARK  225  A    between atoms: _540  and  _542
REMARK  226  A    between atoms: _542  and  _543
REMARK  227  A    between atoms: _542  and  _545
REMARK  228  A    between atoms: _545  and  _546
REMARK  229  A    between atoms: _549  and  _551
REMARK  230  A    between atoms: _551  and  _552
REMARK  231  A    between atoms: _551  and  _554
REMARK  232  A    between atoms: _554  and  _555
REMARK  233  A    between atoms: _558  and  _560
REMARK  234  A    between atoms: _560  and  _561
REMARK  235  A    between atoms: _560  and  _563
REMARK  236  A    between atoms: _563  and  _564
REMARK  237  A    between atoms: _570  and  _572
REMARK  238  A    between atoms: _572  and  _573
REMARK  239  A    between atoms: _575  and  _577
REMARK  240  A    between atoms: _577  and  _578
REMARK  241  A    between atoms: _577  and  _580
REMARK  242  A    between atoms: _580  and  _581
REMARK  243  A    between atoms: _584  and  _586
REMARK  244  A    between atoms: _586  and  _587
REMARK  245  A    between atoms: _592  and  _593
REMARK  246  A    between atoms: _592  and  _595
REMARK  247  A    between atoms: _595  and  _596
REMARK  248  A    between atoms: _596  and  _597
REMARK  249  A    between atoms: _597  and  _598
REMARK                            x       y       z     vdW  Elec       q    Type
REMARK                         _______ _______ _______ _____ _____    ______ ____
ROOT
ATOM      1  O   HOH     1      41.626  21.494  39.448  0.00  0.00    +0.000 OA
ENDROOT
TORSDOF 0
REMARK  Name = ../refined-set-2016/3d7z/3d7z_pocket.pdb
REMARK  249 active torsions:
REMARK  status: ('A' for Active; 'I' for Inactive)
REMARK    1  A    between atoms: _1  and  _3
REMARK    2  A    between atoms: _3  and  _4
REMARK    3  A    between atoms: _3  and  _6
REMARK    4  A    between atoms: _9  and  _11
REMARK    5  A    between atoms: _11  and  _12
REMARK    6  A    between atoms: _14  and  _16
REMARK    7  A    between atoms: _16  and  _17
REMARK    8  A    between atoms: _16  and  _19
REMARK    9  A    between atoms: _19  and  _20
REMARK   10  A    between atoms: _22  and  _24
REMARK   11  A    between atoms: _24  and  _25
REMARK   12  A    between atoms: _28  and  _30
REMARK   13  A    between atoms: _30  and  _31
REMARK   14  A    between atoms: _30  and  _33
REMARK   15  A    between atoms: _33  and  _34
REMARK   16  A    between atoms: _39  and  _40
REMARK   17  A    between atoms: _42  and  _44
REMARK   18  A    between atoms: _44  and  _45
REMARK   19  A    between atoms: _47  and  _49
REMARK   20  A    between atoms: _49  and  _50
REMARK   21  A    between atoms: _49  and  _52
REMARK   22  A    between atoms: _52  and  _53
REMARK   23  A    between atoms: _55  and  _57
REMARK   24  A    between atoms: _57  and  _58
REMARK   25  A    between atoms: _57  and  _60
REMARK   26  A    between atoms: _63  and  _65
REMARK   27  A    between atoms: _65  and  _66
REMARK   28  A    between atoms: _65  and  _68
REMARK   29  A    between atoms: _70  and  _72
REMARK   30  A    between atoms: _72  and  _73
REMARK   31  A    between atoms: _76  and  _78
REMARK   32  A    between atoms: _78  and  _79
REMARK   33  A    between atoms: _78  and  _81
REMARK   34  A    between atoms: _81  and  _82
REMARK   35  A    between atoms: _82  and  _83
REMARK   36  A    between atoms: _83  and  _84
REMARK   37  A    between atoms: _93  and  _95
REMARK   38  A    between atoms: _95  and  _96
REMARK   39  A    between atoms: _95  and  _98
REMARK   40  A    between atoms: _101  and  _103
REMARK   41  A    between atoms: _103  and  _104
REMARK   42  A    between atoms: _107  and  _109
REMARK   43  A    between atoms: _109  and  _110
REMARK   44  A    between atoms: _109  and  _112
REMARK   45  A    between atoms: _115  and  _117
REMARK   46  A    between atoms: _117  and  _118
REMARK   47  A    between atoms: _117  and  _120
REMARK   48  A    between atoms: _120  and  _121
REMARK   49  A    between atoms: _121  and  _122
REMARK   50  A    between atoms: _122  and  _123
REMARK   51  A    between atoms: _123  and  _124
REMARK   52  A    between atoms: _128  and  _130
REMARK   53  A    between atoms: _130  and  _131
REMARK   54  A    between atoms: _130  and  _133
REMARK   55  A    between atoms: _133  and  _134
REMARK   56  A    between atoms: _134  and  _135
REMARK   57  A    between atoms: _135  and  _136
REMARK   58  A    between atoms: _136  and  _137
REMARK   59  A    between atoms: _141  and  _143
REMARK   60  A    between atoms: _143  and  _144
REMARK   61  A    between atoms: _143  and  _146
REMARK   62  A    between atoms: _146  and  _147
REMARK   63  A    between atoms: _150  and  _152
REMARK   64  A    between atoms: _152  and  _153
REMARK   65  A    between atoms: _152  and  _155
REMARK   66  A    between atoms: _155  and  _156
REMARK   67  A    between atoms: _156  and  _157
REMARK   68  A    between atoms: _157  and  _158
REMARK   69  A    between atoms: _167  and  _169
REMARK   70  A    between atoms: _169  and  _170
REMARK   71  A    between atoms: _169  and  _172
REMARK   72  A    between atoms: _172  and  _173
REMARK   73  A    between atoms: _173  and  _174
REMARK   74  A    between atoms: _174  and  _175
REMARK   75  A    between atoms: _184  and  _186
REMARK   76  A    between atoms: _186  and  _187
REMARK   77  A    between atoms: _186  and  _189
REMARK   78  A    between atoms: _189  and  _190
REMARK   79  A    between atoms: _190  and  _191
REMARK   80  A    between atoms: _194  and  _196
REMARK   81  A    between atoms: _196  and  _197
REMARK   82  A    between atoms: _196  and  _199
REMARK   83  A    between atoms: _199  and  _200
REMARK   84  A    between atoms: _203  and  _205
REMARK   85  A    between atoms: _205  and  _206
REMARK   86  A    between atoms: _205  and  _208
REMARK   87  A    between atoms: _208  and  _209
REMARK   88  A    between atoms: _209  and  _210
REMARK   89  A    between atoms: _210  and  _211
REMARK   90  A    between atoms: _220  and  _222
REMARK   91  A    between atoms: _222  and  _223
REMARK   92  A    between atoms: _222  and  _225
REMARK   93  A    between atoms: _225  and  _226
REMARK   94  A    between atoms: _229  and  _231
REMARK   95  A    between atoms: _231  and  _232
REMARK   96  A    between atoms: _231  and  _234
REMARK   97  A    between atoms: _234  and  _235
REMARK   98  A    between atoms: _238  and  _240
REMARK   99  A    between atoms: _240  and  _241
REMARK  100  A    between atoms: _240  and  _243
REMARK  101  A    between atoms: _243  and  _244
REMARK  102  A    between atoms: _244  and  _245
REMARK  103  A    between atoms: _245  and  _246
REMARK  104  A    between atoms: _246  and  _247
REMARK  105  A    between atoms: _251  and  _253
REMARK  106  A    between atoms: _253  and  _254
REMARK  107  A    between atoms: _253  and  _256
REMARK  108  A    between atoms: _256  and  _257
REMARK  109  A    between atoms: _257  and  _258
REMARK  110  A    between atoms: _260  and  _262
REMARK  111  A    between atoms: _262  and  _263
REMARK  112  A    between atoms: _262  and  _265
REMARK  113  A    between atoms: _268  and  _270
REMARK  114  A    between atoms: _270  and  _271
REMARK  115  A    between atoms: _270  and  _273
REMARK  116  A    between atoms: _273  and  _274
REMARK  117  A    between atoms: _277  and  _279
REMARK  118  A    between atoms: _279  and  _280
REMARK  119  A    between atoms: _282  and  _284
REMARK  120  A    between atoms: _284  and  _285
REMARK  121  A    between atoms: _284  and  _287
REMARK  122  A    between atoms: _287  and  _288
REMARK  123  A    between atoms: _291  and  _293
REMARK  124  A    between atoms: _293  and  _294
REMARK  125  A    between atoms: _293  and  _296
REMARK  126  A    between atoms: _296  and  _297
REMARK  127  A    between atoms: _300  and  _302
REMARK  128  A    between atoms: _302  and  _303
REMARK  129  A    between atoms: _302  and  _305
REMARK  130  A    between atoms: _305  and  _306
REMARK  131  A    between atoms: _309  and  _311
REMARK  132  A    between atoms: _311  and  _312
REMARK  133  A    between atoms: _311  and  _314
REMARK  134  A    between atoms: _314  and  _315
REMARK  135  A    between atoms: _320  and  _321
REMARK  136  A    between atoms: _323  and  _325
REMARK  137  A    between atoms: _325  and  _326
REMARK  138  A    between atoms: _325  and  _328
REMARK  139  A    between atoms: _328  and  _329
REMARK  140  A    between atoms: _332  and  _334
REMARK  141  A    between atoms: _334  and  _335
REMARK  142  A    between atoms: _334  and  _337
REMARK  143  A    between atoms: _340  and  _342
REMARK  144  A    between atoms: _342  and  _343
REMARK  145  A    between atoms: _342  and  _345
REMARK  146  A    between atoms: _345  and  _346
REMARK  147  A    between atoms: _349  and  _351
REMARK  148  A    between atoms: _351  and  _352
REMARK  149  A    between atoms: _351  and  _354
REMARK  150  A    between atoms: _354  and  _355
REMARK  151  A    between atoms: _360  and  _362
REMARK  152  A    between atoms: _362  and  _363
REMARK  153  A    between atoms: _362  and  _365
REMARK  154  A    between atoms: _365  and  _366
REMARK  155  A    between atoms: _369  and  _371
REMARK  156  A    between atoms: _371  and  _372
REMARK  157  A    between atoms: _371  and  _374
REMARK  158  A    between atoms: _374  and  _375
REMARK  159  A    between atoms: _375  and  _376
REMARK  160  A    between atoms: _378  and  _380
REMARK  161  A    between atoms: _380  and  _381
REMARK  162  A    between atoms: _383  and  _385
REMARK  163  A    between atoms: _385  and  _386
REMARK  164  A    between atoms: _389  and  _391
REMARK  165  A    between atoms: _391  and  _392
REMARK  166  A    between atoms: _391  and  _394
REMARK  167  A    between atoms: _394  and  _395
REMARK  168  A    between atoms: _398  and  _400
REMARK  169  A    between atoms: _400  and  _401
REMARK  170  A    between atoms: _400  and  _403
REMARK  171  A    between atoms: _403  and  _404
REMARK  172  A    between atoms: _407  and  _409
REMARK  173  A    between atoms: _409  and  _410
REMARK  174  A    between atoms: _409  and  _412
REMARK  175  A    between atoms: _412  and  _413
REMARK  176  A    between atoms: _418  and  _420
REMARK  177  A    between atoms: _420  and  _421
REMARK  178  A    between atoms: _420  and  _423
REMARK  179  A    between atoms: _423  and  _424
REMARK  180  A    between atoms: _429  and  _431
REMARK  181  A    between atoms: _431  and  _432
REMARK  182  A    between atoms: _431  and  _434
REMARK  183  A    between atoms: _434  and  _435
REMARK  184  A    between atoms: _438  and  _440
REMARK  185  A    between atoms: _440  and  _441
REMARK  186  A    between atoms: _440  and  _443
REMARK  187  A    between atoms: _443  and  _444
REMARK  188  A    between atoms: _447  and  _449
REMARK  189  A    between atoms: _449  and  _450
REMARK  190  A    between atoms: _449  and  _452
REMARK  191  A    between atoms: _452  and  _453
REMARK  192  A    between atoms: _459  and  _460
REMARK  193  A    between atoms: _465  and  _467
REMARK  194  A    between atoms: _467  and  _468
REMARK  195  A    between atoms: _467  and  _470
REMARK  196  A    between atoms: _470  and  _471
REMARK  197  A    between atoms: _473  and  _475
REMARK  198  A    between atoms: _475  and  _476
REMARK  199  A    between atoms: _475  and  _478
REMARK  200  A    between atoms: _478  and  _479
REMARK  201  A    between atoms: _484  and  _486
REMARK  202  A    between atoms: _486  and  _487
REMARK  203  A    between atoms: _486  and  _489
REMARK  204  A    between atoms: _489  and  _490
REMARK  205  A    between atoms: _493  and  _495
REMARK  206  A    between atoms: _495  and  _496
REMARK  207  A    between atoms: _499  and  _501
REMARK  208  A    between atoms: _501  and  _502
REMARK  209  A    between atoms: _501  and  _504
REMARK  210  A    between atoms: _507  and  _509
REMARK  211  A    between atoms: _509  and  _510
REMARK  212  A    between atoms: _509  and  _512
REMARK  213  A    between atoms: _512  and  _513
REMARK  214  A    between atoms: _518  and  _520
REMARK  215  A    between atoms: _520  and  _521
REMARK  216  A    between atoms: _520  and  _523
REMARK  217  A    between atoms: _523  and  _524
REMARK  218  A    between atoms: _524  and  _525
REMARK  219  A    between atoms: _525  and  _526
REMARK  220  A    between atoms: _526  and  _527
REMARK  221  A    between atoms: _531  and  _533
REMARK  222  A    between atoms: _533  and  _534
REMARK  223  A    between atoms: _533  and  _536
REMARK  224  A    between atoms: _536  and  _537
REMARK  225  A    between atoms: _540  and  _542
REMARK  226  A    between atoms: _542  and  _543
REMARK  227  A    between atoms: _542  and  _545
REMARK  228  A    between atoms: _545  and  _546
REMARK  229  A    between atoms: _549  and  _551
REMARK  230  A    between atoms: _551  and  _552
REMARK  231  A    between atoms: _551  and  _554
REMARK  232  A    between atoms: _554  and  _555
REMARK  233  A    between atoms: _558  and  _560
REMARK  234  A    between atoms: _560  and  _561
REMARK  235  A    between atoms: _560  and  _563
REMARK  236  A    between atoms: _563  and  _564
REMARK  237  A    between atoms: _570  and  _572
REMARK  238  A    between atoms: _572  and  _573
REMARK  239  A    between atoms: _575  and  _577
REMARK  240  A    between atoms: _577  and  _578
REMARK  241  A    between atoms: _577  and  _580
REMARK  242  A    between atoms: _580  and  _581
REMARK  243  A    between atoms: _584  and  _586
REMARK  244  A    between atoms: _586  and  _587
REMARK  245  A    between atoms: _592  and  _593
REMARK  246  A    between atoms: _592  and  _595
REMARK  247  A    between atoms: _595  and  _596
REMARK  248  A    between atoms: _596  and  _597
REMARK  249  A    between atoms: _597  and  _598
REMARK                            x       y       z     vdW  Elec       q    Type
REMARK                         _______ _______ _______ _____ _____    ______ ____
ROOT
ATOM      1  O   HOH     1      53.836  28.394  33.098  0.00  0.00    +0.000 OA
ENDROOT
TORSDOF 0
REMARK  Name = ../refined-set-2016/3d7z/3d7z_pocket.pdb
REMARK  249 active torsions:
REMARK  status: ('A' for Active; 'I' for Inactive)
REMARK    1  A    between atoms: _1  and  _3
REMARK    2  A    between atoms: _3  and  _4
REMARK    3  A    between atoms: _3  and  _6
REMARK    4  A    between atoms: _9  and  _11
REMARK    5  A    between atoms: _11  and  _12
REMARK    6  A    between atoms: _14  and  _16
REMARK    7  A    between atoms: _16  and  _17
REMARK    8  A    between atoms: _16  and  _19
REMARK    9  A    between atoms: _19  and  _20
REMARK   10  A    between atoms: _22  and  _24
REMARK   11  A    between atoms: _24  and  _25
REMARK   12  A    between atoms: _28  and  _30
REMARK   13  A    between atoms: _30  and  _31
REMARK   14  A    between atoms: _30  and  _33
REMARK   15  A    between atoms: _33  and  _34
REMARK   16  A    between atoms: _39  and  _40
REMARK   17  A    between atoms: _42  and  _44
REMARK   18  A    between atoms: _44  and  _45
REMARK   19  A    between atoms: _47  and  _49
REMARK   20  A    between atoms: _49  and  _50
REMARK   21  A    between atoms: _49  and  _52
REMARK   22  A    between atoms: _52  and  _53
REMARK   23  A    between atoms: _55  and  _57
REMARK   24  A    between atoms: _57  and  _58
REMARK   25  A    between atoms: _57  and  _60
REMARK   26  A    between atoms: _63  and  _65
REMARK   27  A    between atoms: _65  and  _66
REMARK   28  A    between atoms: _65  and  _68
REMARK   29  A    between atoms: _70  and  _72
REMARK   30  A    between atoms: _72  and  _73
REMARK   31  A    between atoms: _76  and  _78
REMARK   32  A    between atoms: _78  and  _79
REMARK   33  A    between atoms: _78  and  _81
REMARK   34  A    between atoms: _81  and  _82
REMARK   35  A    between atoms: _82  and  _83
REMARK   36  A    between atoms: _83  and  _84
REMARK   37  A    between atoms: _93  and  _95
REMARK   38  A    between atoms: _95  and  _96
REMARK   39  A    between atoms: _95  and  _98
REMARK   40  A    between atoms: _101  and  _103
REMARK   41  A    between atoms: _103  and  _104
REMARK   42  A    between atoms: _107  and  _109
REMARK   43  A    between atoms: _109  and  _110
REMARK   44  A    between atoms: _109  and  _112
REMARK   45  A    between atoms: _115  and  _117
REMARK   46  A    between atoms: _117  and  _118
REMARK   47  A    between atoms: _117  and  _120
REMARK   48  A    between atoms: _120  and  _121
REMARK   49  A    between atoms: _121  and  _122
REMARK   50  A    between atoms: _122  and  _123
REMARK   51  A    between atoms: _123  and  _124
REMARK   52  A    between atoms: _128  and  _130
REMARK   53  A    between atoms: _130  and  _131
REMARK   54  A    between atoms: _130  and  _133
REMARK   55  A    between atoms: _133  and  _134
REMARK   56  A    between atoms: _134  and  _135
REMARK   57  A    between atoms: _135  and  _136
REMARK   58  A    between atoms: _136  and  _137
REMARK   59  A    between atoms: _141  and  _143
REMARK   60  A    between atoms: _143  and  _144
REMARK   61  A    between atoms: _143  and  _146
REMARK   62  A    between atoms: _146  and  _147
REMARK   63  A    between atoms: _150  and  _152
REMARK   64  A    between atoms: _152  and  _153
REMARK   65  A    between atoms: _152  and  _155
REMARK   66  A    between atoms: _155  and  _156
REMARK   67  A    between atoms: _156  and  _157
REMARK   68  A    between atoms: _157  and  _158
REMARK   69  A    between atoms: _167  and  _169
REMARK   70  A    between atoms: _169  and  _170
REMARK   71  A    between atoms: _169  and  _172
REMARK   72  A    between atoms: _172  and  _173
REMARK   73  A    between atoms: _173  and  _174
REMARK   74  A    between atoms: _174  and  _175
REMARK   75  A    between atoms: _184  and  _186
REMARK   76  A    between atoms: _186  and  _187
REMARK   77  A    between atoms: _186  and  _189
REMARK   78  A    between atoms: _189  and  _190
REMARK   79  A    between atoms: _190  and  _191
REMARK   80  A    between atoms: _194  and  _196
REMARK   81  A    between atoms: _196  and  _197
REMARK   82  A    between atoms: _196  and  _199
REMARK   83  A    between atoms: _199  and  _200
REMARK   84  A    between atoms: _203  and  _205
REMARK   85  A    between atoms: _205  and  _206
REMARK   86  A    between atoms: _205  and  _208
REMARK   87  A    between atoms: _208  and  _209
REMARK   88  A    between atoms: _209  and  _210
REMARK   89  A    between atoms: _210  and  _211
REMARK   90  A    between atoms: _220  and  _222
REMARK   91  A    between atoms: _222  and  _223
REMARK   92  A    between atoms: _222  and  _225
REMARK   93  A    between atoms: _225  and  _226
REMARK   94  A    between atoms: _229  and  _231
REMARK   95  A    between atoms: _231  and  _232
REMARK   96  A    between atoms: _231  and  _234
REMARK   97  A    between atoms: _234  and  _235
REMARK   98  A    between atoms: _238  and  _240
REMARK   99  A    between atoms: _240  and  _241
REMARK  100  A    between atoms: _240  and  _243
REMARK  101  A    between atoms: _243  and  _244
REMARK  102  A    between atoms: _244  and  _245
REMARK  103  A    between atoms: _245  and  _246
REMARK  104  A    between atoms: _246  and  _247
REMARK  105  A    between atoms: _251  and  _253
REMARK  106  A    between atoms: _253  and  _254
REMARK  107  A    between atoms: _253  and  _256
REMARK  108  A    between atoms: _256  and  _257
REMARK  109  A    between atoms: _257  and  _258
REMARK  110  A    between atoms: _260  and  _262
REMARK  111  A    between atoms: _262  and  _263
REMARK  112  A    between atoms: _262  and  _265
REMARK  113  A    between atoms: _268  and  _270
REMARK  114  A    between atoms: _270  and  _271
REMARK  115  A    between atoms: _270  and  _273
REMARK  116  A    between atoms: _273  and  _274
REMARK  117  A    between atoms: _277  and  _279
REMARK  118  A    between atoms: _279  and  _280
REMARK  119  A    between atoms: _282  and  _284
REMARK  120  A    between atoms: _284  and  _285
REMARK  121  A    between atoms: _284  and  _287
REMARK  122  A    between atoms: _287  and  _288
REMARK  123  A    between atoms: _291  and  _293
REMARK  124  A    between atoms: _293  and  _294
REMARK  125  A    between atoms: _293  and  _296
REMARK  126  A    between atoms: _296  and  _297
REMARK  127  A    between atoms: _300  and  _302
REMARK  128  A    between atoms: _302  and  _303
REMARK  129  A    between atoms: _302  and  _305
REMARK  130  A    between atoms: _305  and  _306
REMARK  131  A    between atoms: _309  and  _311
REMARK  132  A    between atoms: _311  and  _312
REMARK  133  A    between atoms: _311  and  _314
REMARK  134  A    between atoms: _314  and  _315
REMARK  135  A    between atoms: _320  and  _321
REMARK  136  A    between atoms: _323  and  _325
REMARK  137  A    between atoms: _325  and  _326
REMARK  138  A    between atoms: _325  and  _328
REMARK  139  A    between atoms: _328  and  _329
REMARK  140  A    between atoms: _332  and  _334
REMARK  141  A    between atoms: _334  and  _335
REMARK  142  A    between atoms: _334  and  _337
REMARK  143  A    between atoms: _340  and  _342
REMARK  144  A    between atoms: _342  and  _343
REMARK  145  A    between atoms: _342  and  _345
REMARK  146  A    between atoms: _345  and  _346
REMARK  147  A    between atoms: _349  and  _351
REMARK  148  A    between atoms: _351  and  _352
REMARK  149  A    between atoms: _351  and  _354
REMARK  150  A    between atoms: _354  and  _355
REMARK  151  A    between atoms: _360  and  _362
REMARK  152  A    between atoms: _362  and  _363
REMARK  153  A    between atoms: _362  and  _365
REMARK  154  A    between atoms: _365  and  _366
REMARK  155  A    between atoms: _369  and  _371
REMARK  156  A    between atoms: _371  and  _372
REMARK  157  A    between atoms: _371  and  _374
REMARK  158  A    between atoms: _374  and  _375
REMARK  159  A    between atoms: _375  and  _376
REMARK  160  A    between atoms: _378  and  _380
REMARK  161  A    between atoms: _380  and  _381
REMARK  162  A    between atoms: _383  and  _385
REMARK  163  A    between atoms: _385  and  _386
REMARK  164  A    between atoms: _389  and  _391
REMARK  165  A    between atoms: _391  and  _392
REMARK  166  A    between atoms: _391  and  _394
REMARK  167  A    between atoms: _394  and  _395
REMARK  168  A    between atoms: _398  and  _400
REMARK  169  A    between atoms: _400  and  _401
REMARK  170  A    between atoms: _400  and  _403
REMARK  171  A    between atoms: _403  and  _404
REMARK  172  A    between atoms: _407  and  _409
REMARK  173  A    between atoms: _409  and  _410
REMARK  174  A    between atoms: _409  and  _412
REMARK  175  A    between atoms: _412  and  _413
REMARK  176  A    between atoms: _418  and  _420
REMARK  177  A    between atoms: _420  and  _421
REMARK  178  A    between atoms: _420  and  _423
REMARK  179  A    between atoms: _423  and  _424
REMARK  180  A    between atoms: _429  and  _431
REMARK  181  A    between atoms: _431  and  _432
REMARK  182  A    between atoms: _431  and  _434
REMARK  183  A    between atoms: _434  and  _435
REMARK  184  A    between atoms: _438  and  _440
REMARK  185  A    between atoms: _440  and  _441
REMARK  186  A    between atoms: _440  and  _443
REMARK  187  A    between atoms: _443  and  _444
REMARK  188  A    between atoms: _447  and  _449
REMARK  189  A    between atoms: _449  and  _450
REMARK  190  A    between atoms: _449  and  _452
REMARK  191  A    between atoms: _452  and  _453
REMARK  192  A    between atoms: _459  and  _460
REMARK  193  A    between atoms: _465  and  _467
REMARK  194  A    between atoms: _467  and  _468
REMARK  195  A    between atoms: _467  and  _470
REMARK  196  A    between atoms: _470  and  _471
REMARK  197  A    between atoms: _473  and  _475
REMARK  198  A    between atoms: _475  and  _476
REMARK  199  A    between atoms: _475  and  _478
REMARK  200  A    between atoms: _478  and  _479
REMARK  201  A    between atoms: _484  and  _486
REMARK  202  A    between atoms: _486  and  _487
REMARK  203  A    between atoms: _486  and  _489
REMARK  204  A    between atoms: _489  and  _490
REMARK  205  A    between atoms: _493  and  _495
REMARK  206  A    between atoms: _495  and  _496
REMARK  207  A    between atoms: _499  and  _501
REMARK  208  A    between atoms: _501  and  _502
REMARK  209  A    between atoms: _501  and  _504
REMARK  210  A    between atoms: _507  and  _509
REMARK  211  A    between atoms: _509  and  _510
REMARK  212  A    between atoms: _509  and  _512
REMARK  213  A    between atoms: _512  and  _513
REMARK  214  A    between atoms: _518  and  _520
REMARK  215  A    between atoms: _520  and  _521
REMARK  216  A    between atoms: _520  and  _523
REMARK  217  A    between atoms: _523  and  _524
REMARK  218  A    between atoms: _524  and  _525
REMARK  219  A    between atoms: _525  and  _526
REMARK  220  A    between atoms: _526  and  _527
REMARK  221  A    between atoms: _531  and  _533
REMARK  222  A    between atoms: _533  and  _534
REMARK  223  A    between atoms: _533  and  _536
REMARK  224  A    between atoms: _536  and  _537
REMARK  225  A    between atoms: _540  and  _542
REMARK  226  A    between atoms: _542  and  _543
REMARK  227  A    between atoms: _542  and  _545
REMARK  228  A    between atoms: _545  and  _546
REMARK  229  A    between atoms: _549  and  _551
REMARK  230  A    between atoms: _551  and  _552
REMARK  231  A    between atoms: _551  and  _554
REMARK  232  A    between atoms: _554  and  _555
REMARK  233  A    between atoms: _558  and  _560
REMARK  234  A    between atoms: _560  and  _561
REMARK  235  A    between atoms: _560  and  _563
REMARK  236  A    between atoms: _563  and  _564
REMARK  237  A    between atoms: _570  and  _572
REMARK  238  A    between atoms: _572  and  _573
REMARK  239  A    between atoms: _575  and  _577
REMARK  240  A    between atoms: _577  and  _578
REMARK  241  A    between atoms: _577  and  _580
REMARK  242  A    between atoms: _580  and  _581
REMARK  243  A    between atoms: _584  and  _586
REMARK  244  A    between atoms: _586  and  _587
REMARK  245  A    between atoms: _592  and  _593
REMARK  246  A    between atoms: _592  and  _595
REMARK  247  A    between atoms: _595  and  _596
REMARK  248  A    between atoms: _596  and  _597
REMARK  249  A    between atoms: _597  and  _598
REMARK                            x       y       z     vdW  Elec       q    Type
REMARK                         _______ _______ _______ _____ _____    ______ ____
ROOT
ATOM      1  O   HOH     1      52.167  40.260  34.966  0.00  0.00    +0.000 OA
ENDROOT
TORSDOF 0
REMARK  Name = ../refined-set-2016/3d7z/3d7z_pocket.pdb
REMARK  249 active torsions:
REMARK  status: ('A' for Active; 'I' for Inactive)
REMARK    1  A    between atoms: _1  and  _3
REMARK    2  A    between atoms: _3  and  _4
REMARK    3  A    between atoms: _3  and  _6
REMARK    4  A    between atoms: _9  and  _11
REMARK    5  A    between atoms: _11  and  _12
REMARK    6  A    between atoms: _14  and  _16
REMARK    7  A    between atoms: _16  and  _17
REMARK    8  A    between atoms: _16  and  _19
REMARK    9  A    between atoms: _19  and  _20
REMARK   10  A    between atoms: _22  and  _24
REMARK   11  A    between atoms: _24  and  _25
REMARK   12  A    between atoms: _28  and  _30
REMARK   13  A    between atoms: _30  and  _31
REMARK   14  A    between atoms: _30  and  _33
REMARK   15  A    between atoms: _33  and  _34
REMARK   16  A    between atoms: _39  and  _40
REMARK   17  A    between atoms: _42  and  _44
REMARK   18  A    between atoms: _44  and  _45
REMARK   19  A    between atoms: _47  and  _49
REMARK   20  A    between atoms: _49  and  _50
REMARK   21  A    between atoms: _49  and  _52
REMARK   22  A    between atoms: _52  and  _53
REMARK   23  A    between atoms: _55  and  _57
REMARK   24  A    between atoms: _57  and  _58
REMARK   25  A    between atoms: _57  and  _60
REMARK   26  A    between atoms: _63  and  _65
REMARK   27  A    between atoms: _65  and  _66
REMARK   28  A    between atoms: _65  and  _68
REMARK   29  A    between atoms: _70  and  _72
REMARK   30  A    between atoms: _72  and  _73
REMARK   31  A    between atoms: _76  and  _78
REMARK   32  A    between atoms: _78  and  _79
REMARK   33  A    between atoms: _78  and  _81
REMARK   34  A    between atoms: _81  and  _82
REMARK   35  A    between atoms: _82  and  _83
REMARK   36  A    between atoms: _83  and  _84
REMARK   37  A    between atoms: _93  and  _95
REMARK   38  A    between atoms: _95  and  _96
REMARK   39  A    between atoms: _95  and  _98
REMARK   40  A    between atoms: _101  and  _103
REMARK   41  A    between atoms: _103  and  _104
REMARK   42  A    between atoms: _107  and  _109
REMARK   43  A    between atoms: _109  and  _110
REMARK   44  A    between atoms: _109  and  _112
REMARK   45  A    between atoms: _115  and  _117
REMARK   46  A    between atoms: _117  and  _118
REMARK   47  A    between atoms: _117  and  _120
REMARK   48  A    between atoms: _120  and  _121
REMARK   49  A    between atoms: _121  and  _122
REMARK   50  A    between atoms: _122  and  _123
REMARK   51  A    between atoms: _123  and  _124
REMARK   52  A    between atoms: _128  and  _130
REMARK   53  A    between atoms: _130  and  _131
REMARK   54  A    between atoms: _130  and  _133
REMARK   55  A    between atoms: _133  and  _134
REMARK   56  A    between atoms: _134  and  _135
REMARK   57  A    between atoms: _135  and  _136
REMARK   58  A    between atoms: _136  and  _137
REMARK   59  A    between atoms: _141  and  _143
REMARK   60  A    between atoms: _143  and  _144
REMARK   61  A    between atoms: _143  and  _146
REMARK   62  A    between atoms: _146  and  _147
REMARK   63  A    between atoms: _150  and  _152
REMARK   64  A    between atoms: _152  and  _153
REMARK   65  A    between atoms: _152  and  _155
REMARK   66  A    between atoms: _155  and  _156
REMARK   67  A    between atoms: _156  and  _157
REMARK   68  A    between atoms: _157  and  _158
REMARK   69  A    between atoms: _167  and  _169
REMARK   70  A    between atoms: _169  and  _170
REMARK   71  A    between atoms: _169  and  _172
REMARK   72  A    between atoms: _172  and  _173
REMARK   73  A    between atoms: _173  and  _174
REMARK   74  A    between atoms: _174  and  _175
REMARK   75  A    between atoms: _184  and  _186
REMARK   76  A    between atoms: _186  and  _187
REMARK   77  A    between atoms: _186  and  _189
REMARK   78  A    between atoms: _189  and  _190
REMARK   79  A    between atoms: _190  and  _191
REMARK   80  A    between atoms: _194  and  _196
REMARK   81  A    between atoms: _196  and  _197
REMARK   82  A    between atoms: _196  and  _199
REMARK   83  A    between atoms: _199  and  _200
REMARK   84  A    between atoms: _203  and  _205
REMARK   85  A    between atoms: _205  and  _206
REMARK   86  A    between atoms: _205  and  _208
REMARK   87  A    between atoms: _208  and  _209
REMARK   88  A    between atoms: _209  and  _210
REMARK   89  A    between atoms: _210  and  _211
REMARK   90  A    between atoms: _220  and  _222
REMARK   91  A    between atoms: _222  and  _223
REMARK   92  A    between atoms: _222  and  _225
REMARK   93  A    between atoms: _225  and  _226
REMARK   94  A    between atoms: _229  and  _231
REMARK   95  A    between atoms: _231  and  _232
REMARK   96  A    between atoms: _231  and  _234
REMARK   97  A    between atoms: _234  and  _235
REMARK   98  A    between atoms: _238  and  _240
REMARK   99  A    between atoms: _240  and  _241
REMARK  100  A    between atoms: _240  and  _243
REMARK  101  A    between atoms: _243  and  _244
REMARK  102  A    between atoms: _244  and  _245
REMARK  103  A    between atoms: _245  and  _246
REMARK  104  A    between atoms: _246  and  _247
REMARK  105  A    between atoms: _251  and  _253
REMARK  106  A    between atoms: _253  and  _254
REMARK  107  A    between atoms: _253  and  _256
REMARK  108  A    between atoms: _256  and  _257
REMARK  109  A    between atoms: _257  and  _258
REMARK  110  A    between atoms: _260  and  _262
REMARK  111  A    between atoms: _262  and  _263
REMARK  112  A    between atoms: _262  and  _265
REMARK  113  A    between atoms: _268  and  _270
REMARK  114  A    between atoms: _270  and  _271
REMARK  115  A    between atoms: _270  and  _273
REMARK  116  A    between atoms: _273  and  _274
REMARK  117  A    between atoms: _277  and  _279
REMARK  118  A    between atoms: _279  and  _280
REMARK  119  A    between atoms: _282  and  _284
REMARK  120  A    between atoms: _284  and  _285
REMARK  121  A    between atoms: _284  and  _287
REMARK  122  A    between atoms: _287  and  _288
REMARK  123  A    between atoms: _291  and  _293
REMARK  124  A    between atoms: _293  and  _294
REMARK  125  A    between atoms: _293  and  _296
REMARK  126  A    between atoms: _296  and  _297
REMARK  127  A    between atoms: _300  and  _302
REMARK  128  A    between atoms: _302  and  _303
REMARK  129  A    between atoms: _302  and  _305
REMARK  130  A    between atoms: _305  and  _306
REMARK  131  A    between atoms: _309  and  _311
REMARK  132  A    between atoms: _311  and  _312
REMARK  133  A    between atoms: _311  and  _314
REMARK  134  A    between atoms: _314  and  _315
REMARK  135  A    between atoms: _320  and  _321
REMARK  136  A    between atoms: _323  and  _325
REMARK  137  A    between atoms: _325  and  _326
REMARK  138  A    between atoms: _325  and  _328
REMARK  139  A    between atoms: _328  and  _329
REMARK  140  A    between atoms: _332  and  _334
REMARK  141  A    between atoms: _334  and  _335
REMARK  142  A    between atoms: _334  and  _337
REMARK  143  A    between atoms: _340  and  _342
REMARK  144  A    between atoms: _342  and  _343
REMARK  145  A    between atoms: _342  and  _345
REMARK  146  A    between atoms: _345  and  _346
REMARK  147  A    between atoms: _349  and  _351
REMARK  148  A    between atoms: _351  and  _352
REMARK  149  A    between atoms: _351  and  _354
REMARK  150  A    between atoms: _354  and  _355
REMARK  151  A    between atoms: _360  and  _362
REMARK  152  A    between atoms: _362  and  _363
REMARK  153  A    between atoms: _362  and  _365
REMARK  154  A    between atoms: _365  and  _366
REMARK  155  A    between atoms: _369  and  _371
REMARK  156  A    between atoms: _371  and  _372
REMARK  157  A    between atoms: _371  and  _374
REMARK  158  A    between atoms: _374  and  _375
REMARK  159  A    between atoms: _375  and  _376
REMARK  160  A    between atoms: _378  and  _380
REMARK  161  A    between atoms: _380  and  _381
REMARK  162  A    between atoms: _383  and  _385
REMARK  163  A    between atoms: _385  and  _386
REMARK  164  A    between atoms: _389  and  _391
REMARK  165  A    between atoms: _391  and  _392
REMARK  166  A    between atoms: _391  and  _394
REMARK  167  A    between atoms: _394  and  _395
REMARK  168  A    between atoms: _398  and  _400
REMARK  169  A    between atoms: _400  and  _401
REMARK  170  A    between atoms: _400  and  _403
REMARK  171  A    between atoms: _403  and  _404
REMARK  172  A    between atoms: _407  and  _409
REMARK  173  A    between atoms: _409  and  _410
REMARK  174  A    between atoms: _409  and  _412
REMARK  175  A    between atoms: _412  and  _413
REMARK  176  A    between atoms: _418  and  _420
REMARK  177  A    between atoms: _420  and  _421
REMARK  178  A    between atoms: _420  and  _423
REMARK  179  A    between atoms: _423  and  _424
REMARK  180  A    between atoms: _429  and  _431
REMARK  181  A    between atoms: _431  and  _432
REMARK  182  A    between atoms: _431  and  _434
REMARK  183  A    between atoms: _434  and  _435
REMARK  184  A    between atoms: _438  and  _440
REMARK  185  A    between atoms: _440  and  _441
REMARK  186  A    between atoms: _440  and  _443
REMARK  187  A    between atoms: _443  and  _444
REMARK  188  A    between atoms: _447  and  _449
REMARK  189  A    between atoms: _449  and  _450
REMARK  190  A    between atoms: _449  and  _452
REMARK  191  A    between atoms: _452  and  _453
REMARK  192  A    between atoms: _459  and  _460
REMARK  193  A    between atoms: _465  and  _467
REMARK  194  A    between atoms: _467  and  _468
REMARK  195  A    between atoms: _467  and  _470
REMARK  196  A    between atoms: _470  and  _471
REMARK  197  A    between atoms: _473  and  _475
REMARK  198  A    between atoms: _475  and  _476
REMARK  199  A    between atoms: _475  and  _478
REMARK  200  A    between atoms: _478  and  _479
REMARK  201  A    between atoms: _484  and  _486
REMARK  202  A    between atoms: _486  and  _487
REMARK  203  A    between atoms: _486  and  _489
REMARK  204  A    between atoms: _489  and  _490
REMARK  205  A    between atoms: _493  and  _495
REMARK  206  A    between atoms: _495  and  _496
REMARK  207  A    between atoms: _499  and  _501
REMARK  208  A    between atoms: _501  and  _502
REMARK  209  A    between atoms: _501  and  _504
REMARK  210  A    between atoms: _507  and  _509
REMARK  211  A    between atoms: _509  and  _510
REMARK  212  A    between atoms: _509  and  _512
REMARK  213  A    between atoms: _512  and  _513
REMARK  214  A    between atoms: _518  and  _520
REMARK  215  A    between atoms: _520  and  _521
REMARK  216  A    between atoms: _520  and  _523
REMARK  217  A    between atoms: _523  and  _524
REMARK  218  A    between atoms: _524  and  _525
REMARK  219  A    between atoms: _525  and  _526
REMARK  220  A    between atoms: _526  and  _527
REMARK  221  A    between atoms: _531  and  _533
REMARK  222  A    between atoms: _533  and  _534
REMARK  223  A    between atoms: _533  and  _536
REMARK  224  A    between atoms: _536  and  _537
REMARK  225  A    between atoms: _540  and  _542
REMARK  226  A    between atoms: _542  and  _543
REMARK  227  A    between atoms: _542  and  _545
REMARK  228  A    between atoms: _545  and  _546
REMARK  229  A    between atoms: _549  and  _551
REMARK  230  A    between atoms: _551  and  _552
REMARK  231  A    between atoms: _551  and  _554
REMARK  232  A    between atoms: _554  and  _555
REMARK  233  A    between atoms: _558  and  _560
REMARK  234  A    between atoms: _560  and  _561
REMARK  235  A    between atoms: _560  and  _563
REMARK  236  A    between atoms: _563  and  _564
REMARK  237  A    between atoms: _570  and  _572
REMARK  238  A    between atoms: _572  and  _573
REMARK  239  A    between atoms: _575  and  _577
REMARK  240  A    between atoms: _577  and  _578
REMARK  241  A    between atoms: _577  and  _580
REMARK  242  A    between atoms: _580  and  _581
REMARK  243  A    between atoms: _584  and  _586
REMARK  244  A    between atoms: _586  and  _587
REMARK  245  A    between atoms: _592  and  _593
REMARK  246  A    between atoms: _592  and  _595
REMARK  247  A    between atoms: _595  and  _596
REMARK  248  A    between atoms: _596  and  _597
REMARK  249  A    between atoms: _597  and  _598
REMARK                            x       y       z     vdW  Elec       q    Type
REMARK                         _______ _______ _______ _____ _____    ______ ____
ROOT
ATOM      1  O   HOH     1      48.447  40.884  29.073  0.00  0.00    +0.000 OA
ENDROOT
TORSDOF 0
REMARK  Name = ../refined-set-2016/3d7z/3d7z_pocket.pdb
REMARK  249 active torsions:
REMARK  status: ('A' for Active; 'I' for Inactive)
REMARK    1  A    between atoms: _1  and  _3
REMARK    2  A    between atoms: _3  and  _4
REMARK    3  A    between atoms: _3  and  _6
REMARK    4  A    between atoms: _9  and  _11
REMARK    5  A    between atoms: _11  and  _12
REMARK    6  A    between atoms: _14  and  _16
REMARK    7  A    between atoms: _16  and  _17
REMARK    8  A    between atoms: _16  and  _19
REMARK    9  A    between atoms: _19  and  _20
REMARK   10  A    between atoms: _22  and  _24
REMARK   11  A    between atoms: _24  and  _25
REMARK   12  A    between atoms: _28  and  _30
REMARK   13  A    between atoms: _30  and  _31
REMARK   14  A    between atoms: _30  and  _33
REMARK   15  A    between atoms: _33  and  _34
REMARK   16  A    between atoms: _39  and  _40
REMARK   17  A    between atoms: _42  and  _44
REMARK   18  A    between atoms: _44  and  _45
REMARK   19  A    between atoms: _47  and  _49
REMARK   20  A    between atoms: _49  and  _50
REMARK   21  A    between atoms: _49  and  _52
REMARK   22  A    between atoms: _52  and  _53
REMARK   23  A    between atoms: _55  and  _57
REMARK   24  A    between atoms: _57  and  _58
REMARK   25  A    between atoms: _57  and  _60
REMARK   26  A    between atoms: _63  and  _65
REMARK   27  A    between atoms: _65  and  _66
REMARK   28  A    between atoms: _65  and  _68
REMARK   29  A    between atoms: _70  and  _72
REMARK   30  A    between atoms: _72  and  _73
REMARK   31  A    between atoms: _76  and  _78
REMARK   32  A    between atoms: _78  and  _79
REMARK   33  A    between atoms: _78  and  _81
REMARK   34  A    between atoms: _81  and  _82
REMARK   35  A    between atoms: _82  and  _83
REMARK   36  A    between atoms: _83  and  _84
REMARK   37  A    between atoms: _93  and  _95
REMARK   38  A    between atoms: _95  and  _96
REMARK   39  A    between atoms: _95  and  _98
REMARK   40  A    between atoms: _101  and  _103
REMARK   41  A    between atoms: _103  and  _104
REMARK   42  A    between atoms: _107  and  _109
REMARK   43  A    between atoms: _109  and  _110
REMARK   44  A    between atoms: _109  and  _112
REMARK   45  A    between atoms: _115  and  _117
REMARK   46  A    between atoms: _117  and  _118
REMARK   47  A    between atoms: _117  and  _120
REMARK   48  A    between atoms: _120  and  _121
REMARK   49  A    between atoms: _121  and  _122
REMARK   50  A    between atoms: _122  and  _123
REMARK   51  A    between atoms: _123  and  _124
REMARK   52  A    between atoms: _128  and  _130
REMARK   53  A    between atoms: _130  and  _131
REMARK   54  A    between atoms: _130  and  _133
REMARK   55  A    between atoms: _133  and  _134
REMARK   56  A    between atoms: _134  and  _135
REMARK   57  A    between atoms: _135  and  _136
REMARK   58  A    between atoms: _136  and  _137
REMARK   59  A    between atoms: _141  and  _143
REMARK   60  A    between atoms: _143  and  _144
REMARK   61  A    between atoms: _143  and  _146
REMARK   62  A    between atoms: _146  and  _147
REMARK   63  A    between atoms: _150  and  _152
REMARK   64  A    between atoms: _152  and  _153
REMARK   65  A    between atoms: _152  and  _155
REMARK   66  A    between atoms: _155  and  _156
REMARK   67  A    between atoms: _156  and  _157
REMARK   68  A    between atoms: _157  and  _158
REMARK   69  A    between atoms: _167  and  _169
REMARK   70  A    between atoms: _169  and  _170
REMARK   71  A    between atoms: _169  and  _172
REMARK   72  A    between atoms: _172  and  _173
REMARK   73  A    between atoms: _173  and  _174
REMARK   74  A    between atoms: _174  and  _175
REMARK   75  A    between atoms: _184  and  _186
REMARK   76  A    between atoms: _186  and  _187
REMARK   77  A    between atoms: _186  and  _189
REMARK   78  A    between atoms: _189  and  _190
REMARK   79  A    between atoms: _190  and  _191
REMARK   80  A    between atoms: _194  and  _196
REMARK   81  A    between atoms: _196  and  _197
REMARK   82  A    between atoms: _196  and  _199
REMARK   83  A    between atoms: _199  and  _200
REMARK   84  A    between atoms: _203  and  _205
REMARK   85  A    between atoms: _205  and  _206
REMARK   86  A    between atoms: _205  and  _208
REMARK   87  A    between atoms: _208  and  _209
REMARK   88  A    between atoms: _209  and  _210
REMARK   89  A    between atoms: _210  and  _211
REMARK   90  A    between atoms: _220  and  _222
REMARK   91  A    between atoms: _222  and  _223
REMARK   92  A    between atoms: _222  and  _225
REMARK   93  A    between atoms: _225  and  _226
REMARK   94  A    between atoms: _229  and  _231
REMARK   95  A    between atoms: _231  and  _232
REMARK   96  A    between atoms: _231  and  _234
REMARK   97  A    between atoms: _234  and  _235
REMARK   98  A    between atoms: _238  and  _240
REMARK   99  A    between atoms: _240  and  _241
REMARK  100  A    between atoms: _240  and  _243
REMARK  101  A    between atoms: _243  and  _244
REMARK  102  A    between atoms: _244  and  _245
REMARK  103  A    between atoms: _245  and  _246
REMARK  104  A    between atoms: _246  and  _247
REMARK  105  A    between atoms: _251  and  _253
REMARK  106  A    between atoms: _253  and  _254
REMARK  107  A    between atoms: _253  and  _256
REMARK  108  A    between atoms: _256  and  _257
REMARK  109  A    between atoms: _257  and  _258
REMARK  110  A    between atoms: _260  and  _262
REMARK  111  A    between atoms: _262  and  _263
REMARK  112  A    between atoms: _262  and  _265
REMARK  113  A    between atoms: _268  and  _270
REMARK  114  A    between atoms: _270  and  _271
REMARK  115  A    between atoms: _270  and  _273
REMARK  116  A    between atoms: _273  and  _274
REMARK  117  A    between atoms: _277  and  _279
REMARK  118  A    between atoms: _279  and  _280
REMARK  119  A    between atoms: _282  and  _284
REMARK  120  A    between atoms: _284  and  _285
REMARK  121  A    between atoms: _284  and  _287
REMARK  122  A    between atoms: _287  and  _288
REMARK  123  A    between atoms: _291  and  _293
REMARK  124  A    between atoms: _293  and  _294
REMARK  125  A    between atoms: _293  and  _296
REMARK  126  A    between atoms: _296  and  _297
REMARK  127  A    between atoms: _300  and  _302
REMARK  128  A    between atoms: _302  and  _303
REMARK  129  A    between atoms: _302  and  _305
REMARK  130  A    between atoms: _305  and  _306
REMARK  131  A    between atoms: _309  and  _311
REMARK  132  A    between atoms: _311  and  _312
REMARK  133  A    between atoms: _311  and  _314
REMARK  134  A    between atoms: _314  and  _315
REMARK  135  A    between atoms: _320  and  _321
REMARK  136  A    between atoms: _323  and  _325
REMARK  137  A    between atoms: _325  and  _326
REMARK  138  A    between atoms: _325  and  _328
REMARK  139  A    between atoms: _328  and  _329
REMARK  140  A    between atoms: _332  and  _334
REMARK  141  A    between atoms: _334  and  _335
REMARK  142  A    between atoms: _334  and  _337
REMARK  143  A    between atoms: _340  and  _342
REMARK  144  A    between atoms: _342  and  _343
REMARK  145  A    between atoms: _342  and  _345
REMARK  146  A    between atoms: _345  and  _346
REMARK  147  A    between atoms: _349  and  _351
REMARK  148  A    between atoms: _351  and  _352
REMARK  149  A    between atoms: _351  and  _354
REMARK  150  A    between atoms: _354  and  _355
REMARK  151  A    between atoms: _360  and  _362
REMARK  152  A    between atoms: _362  and  _363
REMARK  153  A    between atoms: _362  and  _365
REMARK  154  A    between atoms: _365  and  _366
REMARK  155  A    between atoms: _369  and  _371
REMARK  156  A    between atoms: _371  and  _372
REMARK  157  A    between atoms: _371  and  _374
REMARK  158  A    between atoms: _374  and  _375
REMARK  159  A    between atoms: _375  and  _376
REMARK  160  A    between atoms: _378  and  _380
REMARK  161  A    between atoms: _380  and  _381
REMARK  162  A    between atoms: _383  and  _385
REMARK  163  A    between atoms: _385  and  _386
REMARK  164  A    between atoms: _389  and  _391
REMARK  165  A    between atoms: _391  and  _392
REMARK  166  A    between atoms: _391  and  _394
REMARK  167  A    between atoms: _394  and  _395
REMARK  168  A    between atoms: _398  and  _400
REMARK  169  A    between atoms: _400  and  _401
REMARK  170  A    between atoms: _400  and  _403
REMARK  171  A    between atoms: _403  and  _404
REMARK  172  A    between atoms: _407  and  _409
REMARK  173  A    between atoms: _409  and  _410
REMARK  174  A    between atoms: _409  and  _412
REMARK  175  A    between atoms: _412  and  _413
REMARK  176  A    between atoms: _418  and  _420
REMARK  177  A    between atoms: _420  and  _421
REMARK  178  A    between atoms: _420  and  _423
REMARK  179  A    between atoms: _423  and  _424
REMARK  180  A    between atoms: _429  and  _431
REMARK  181  A    between atoms: _431  and  _432
REMARK  182  A    between atoms: _431  and  _434
REMARK  183  A    between atoms: _434  and  _435
REMARK  184  A    between atoms: _438  and  _440
REMARK  185  A    between atoms: _440  and  _441
REMARK  186  A    between atoms: _440  and  _443
REMARK  187  A    between atoms: _443  and  _444
REMARK  188  A    between atoms: _447  and  _449
REMARK  189  A    between atoms: _449  and  _450
REMARK  190  A    between atoms: _449  and  _452
REMARK  191  A    between atoms: _452  and  _453
REMARK  192  A    between atoms: _459  and  _460
REMARK  193  A    between atoms: _465  and  _467
REMARK  194  A    between atoms: _467  and  _468
REMARK  195  A    between atoms: _467  and  _470
REMARK  196  A    between atoms: _470  and  _471
REMARK  197  A    between atoms: _473  and  _475
REMARK  198  A    between atoms: _475  and  _476
REMARK  199  A    between atoms: _475  and  _478
REMARK  200  A    between atoms: _478  and  _479
REMARK  201  A    between atoms: _484  and  _486
REMARK  202  A    between atoms: _486  and  _487
REMARK  203  A    between atoms: _486  and  _489
REMARK  204  A    between atoms: _489  and  _490
REMARK  205  A    between atoms: _493  and  _495
REMARK  206  A    between atoms: _495  and  _496
REMARK  207  A    between atoms: _499  and  _501
REMARK  208  A    between atoms: _501  and  _502
REMARK  209  A    between atoms: _501  and  _504
REMARK  210  A    between atoms: _507  and  _509
REMARK  211  A    between atoms: _509  and  _510
REMARK  212  A    between atoms: _509  and  _512
REMARK  213  A    between atoms: _512  and  _513
REMARK  214  A    between atoms: _518  and  _520
REMARK  215  A    between atoms: _520  and  _521
REMARK  216  A    between atoms: _520  and  _523
REMARK  217  A    between atoms: _523  and  _524
REMARK  218  A    between atoms: _524  and  _525
REMARK  219  A    between atoms: _525  and  _526
REMARK  220  A    between atoms: _526  and  _527
REMARK  221  A    between atoms: _531  and  _533
REMARK  222  A    between atoms: _533  and  _534
REMARK  223  A    between atoms: _533  and  _536
REMARK  224  A    between atoms: _536  and  _537
REMARK  225  A    between atoms: _540  and  _542
REMARK  226  A    between atoms: _542  and  _543
REMARK  227  A    between atoms: _542  and  _545
REMARK  228  A    between atoms: _545  and  _546
REMARK  229  A    between atoms: _549  and  _551
REMARK  230  A    between atoms: _551  and  _552
REMARK  231  A    between atoms: _551  and  _554
REMARK  232  A    between atoms: _554  and  _555
REMARK  233  A    between atoms: _558  and  _560
REMARK  234  A    between atoms: _560  and  _561
REMARK  235  A    between atoms: _560  and  _563
REMARK  236  A    between atoms: _563  and  _564
REMARK  237  A    between atoms: _570  and  _572
REMARK  238  A    between atoms: _572  and  _573
REMARK  239  A    between atoms: _575  and  _577
REMARK  240  A    between atoms: _577  and  _578
REMARK  241  A    between atoms: _577  and  _580
REMARK  242  A    between atoms: _580  and  _581
REMARK  243  A    between atoms: _584  and  _586
REMARK  244  A    between atoms: _586  and  _587
REMARK  245  A    between atoms: _592  and  _593
REMARK  246  A    between atoms: _592  and  _595
REMARK  247  A    between atoms: _595  and  _596
REMARK  248  A    between atoms: _596  and  _597
REMARK  249  A    between atoms: _597  and  _598
REMARK                            x       y       z     vdW  Elec       q    Type
REMARK                         _______ _______ _______ _____ _____    ______ ____
ROOT
ATOM      1  O   HOH     1      34.910  22.441  31.176  0.00  0.00    +0.000 OA
ENDROOT
TORSDOF 0
REMARK  Name = ../refined-set-2016/3d7z/3d7z_pocket.pdb
REMARK  249 active torsions:
REMARK  status: ('A' for Active; 'I' for Inactive)
REMARK    1  A    between atoms: _1  and  _3
REMARK    2  A    between atoms: _3  and  _4
REMARK    3  A    between atoms: _3  and  _6
REMARK    4  A    between atoms: _9  and  _11
REMARK    5  A    between atoms: _11  and  _12
REMARK    6  A    between atoms: _14  and  _16
REMARK    7  A    between atoms: _16  and  _17
REMARK    8  A    between atoms: _16  and  _19
REMARK    9  A    between atoms: _19  and  _20
REMARK   10  A    between atoms: _22  and  _24
REMARK   11  A    between atoms: _24  and  _25
REMARK   12  A    between atoms: _28  and  _30
REMARK   13  A    between atoms: _30  and  _31
REMARK   14  A    between atoms: _30  and  _33
REMARK   15  A    between atoms: _33  and  _34
REMARK   16  A    between atoms: _39  and  _40
REMARK   17  A    between atoms: _42  and  _44
REMARK   18  A    between atoms: _44  and  _45
REMARK   19  A    between atoms: _47  and  _49
REMARK   20  A    between atoms: _49  and  _50
REMARK   21  A    between atoms: _49  and  _52
REMARK   22  A    between atoms: _52  and  _53
REMARK   23  A    between atoms: _55  and  _57
REMARK   24  A    between atoms: _57  and  _58
REMARK   25  A    between atoms: _57  and  _60
REMARK   26  A    between atoms: _63  and  _65
REMARK   27  A    between atoms: _65  and  _66
REMARK   28  A    between atoms: _65  and  _68
REMARK   29  A    between atoms: _70  and  _72
REMARK   30  A    between atoms: _72  and  _73
REMARK   31  A    between atoms: _76  and  _78
REMARK   32  A    between atoms: _78  and  _79
REMARK   33  A    between atoms: _78  and  _81
REMARK   34  A    between atoms: _81  and  _82
REMARK   35  A    between atoms: _82  and  _83
REMARK   36  A    between atoms: _83  and  _84
REMARK   37  A    between atoms: _93  and  _95
REMARK   38  A    between atoms: _95  and  _96
REMARK   39  A    between atoms: _95  and  _98
REMARK   40  A    between atoms: _101  and  _103
REMARK   41  A    between atoms: _103  and  _104
REMARK   42  A    between atoms: _107  and  _109
REMARK   43  A    between atoms: _109  and  _110
REMARK   44  A    between atoms: _109  and  _112
REMARK   45  A    between atoms: _115  and  _117
REMARK   46  A    between atoms: _117  and  _118
REMARK   47  A    between atoms: _117  and  _120
REMARK   48  A    between atoms: _120  and  _121
REMARK   49  A    between atoms: _121  and  _122
REMARK   50  A    between atoms: _122  and  _123
REMARK   51  A    between atoms: _123  and  _124
REMARK   52  A    between atoms: _128  and  _130
REMARK   53  A    between atoms: _130  and  _131
REMARK   54  A    between atoms: _130  and  _133
REMARK   55  A    between atoms: _133  and  _134
REMARK   56  A    between atoms: _134  and  _135
REMARK   57  A    between atoms: _135  and  _136
REMARK   58  A    between atoms: _136  and  _137
REMARK   59  A    between atoms: _141  and  _143
REMARK   60  A    between atoms: _143  and  _144
REMARK   61  A    between atoms: _143  and  _146
REMARK   62  A    between atoms: _146  and  _147
REMARK   63  A    between atoms: _150  and  _152
REMARK   64  A    between atoms: _152  and  _153
REMARK   65  A    between atoms: _152  and  _155
REMARK   66  A    between atoms: _155  and  _156
REMARK   67  A    between atoms: _156  and  _157
REMARK   68  A    between atoms: _157  and  _158
REMARK   69  A    between atoms: _167  and  _169
REMARK   70  A    between atoms: _169  and  _170
REMARK   71  A    between atoms: _169  and  _172
REMARK   72  A    between atoms: _172  and  _173
REMARK   73  A    between atoms: _173  and  _174
REMARK   74  A    between atoms: _174  and  _175
REMARK   75  A    between atoms: _184  and  _186
REMARK   76  A    between atoms: _186  and  _187
REMARK   77  A    between atoms: _186  and  _189
REMARK   78  A    between atoms: _189  and  _190
REMARK   79  A    between atoms: _190  and  _191
REMARK   80  A    between atoms: _194  and  _196
REMARK   81  A    between atoms: _196  and  _197
REMARK   82  A    between atoms: _196  and  _199
REMARK   83  A    between atoms: _199  and  _200
REMARK   84  A    between atoms: _203  and  _205
REMARK   85  A    between atoms: _205  and  _206
REMARK   86  A    between atoms: _205  and  _208
REMARK   87  A    between atoms: _208  and  _209
REMARK   88  A    between atoms: _209  and  _210
REMARK   89  A    between atoms: _210  and  _211
REMARK   90  A    between atoms: _220  and  _222
REMARK   91  A    between atoms: _222  and  _223
REMARK   92  A    between atoms: _222  and  _225
REMARK   93  A    between atoms: _225  and  _226
REMARK   94  A    between atoms: _229  and  _231
REMARK   95  A    between atoms: _231  and  _232
REMARK   96  A    between atoms: _231  and  _234
REMARK   97  A    between atoms: _234  and  _235
REMARK   98  A    between atoms: _238  and  _240
REMARK   99  A    between atoms: _240  and  _241
REMARK  100  A    between atoms: _240  and  _243
REMARK  101  A    between atoms: _243  and  _244
REMARK  102  A    between atoms: _244  and  _245
REMARK  103  A    between atoms: _245  and  _246
REMARK  104  A    between atoms: _246  and  _247
REMARK  105  A    between atoms: _251  and  _253
REMARK  106  A    between atoms: _253  and  _254
REMARK  107  A    between atoms: _253  and  _256
REMARK  108  A    between atoms: _256  and  _257
REMARK  109  A    between atoms: _257  and  _258
REMARK  110  A    between atoms: _260  and  _262
REMARK  111  A    between atoms: _262  and  _263
REMARK  112  A    between atoms: _262  and  _265
REMARK  113  A    between atoms: _268  and  _270
REMARK  114  A    between atoms: _270  and  _271
REMARK  115  A    between atoms: _270  and  _273
REMARK  116  A    between atoms: _273  and  _274
REMARK  117  A    between atoms: _277  and  _279
REMARK  118  A    between atoms: _279  and  _280
REMARK  119  A    between atoms: _282  and  _284
REMARK  120  A    between atoms: _284  and  _285
REMARK  121  A    between atoms: _284  and  _287
REMARK  122  A    between atoms: _287  and  _288
REMARK  123  A    between atoms: _291  and  _293
REMARK  124  A    between atoms: _293  and  _294
REMARK  125  A    between atoms: _293  and  _296
REMARK  126  A    between atoms: _296  and  _297
REMARK  127  A    between atoms: _300  and  _302
REMARK  128  A    between atoms: _302  and  _303
REMARK  129  A    between atoms: _302  and  _305
REMARK  130  A    between atoms: _305  and  _306
REMARK  131  A    between atoms: _309  and  _311
REMARK  132  A    between atoms: _311  and  _312
REMARK  133  A    between atoms: _311  and  _314
REMARK  134  A    between atoms: _314  and  _315
REMARK  135  A    between atoms: _320  and  _321
REMARK  136  A    between atoms: _323  and  _325
REMARK  137  A    between atoms: _325  and  _326
REMARK  138  A    between atoms: _325  and  _328
REMARK  139  A    between atoms: _328  and  _329
REMARK  140  A    between atoms: _332  and  _334
REMARK  141  A    between atoms: _334  and  _335
REMARK  142  A    between atoms: _334  and  _337
REMARK  143  A    between atoms: _340  and  _342
REMARK  144  A    between atoms: _342  and  _343
REMARK  145  A    between atoms: _342  and  _345
REMARK  146  A    between atoms: _345  and  _346
REMARK  147  A    between atoms: _349  and  _351
REMARK  148  A    between atoms: _351  and  _352
REMARK  149  A    between atoms: _351  and  _354
REMARK  150  A    between atoms: _354  and  _355
REMARK  151  A    between atoms: _360  and  _362
REMARK  152  A    between atoms: _362  and  _363
REMARK  153  A    between atoms: _362  and  _365
REMARK  154  A    between atoms: _365  and  _366
REMARK  155  A    between atoms: _369  and  _371
REMARK  156  A    between atoms: _371  and  _372
REMARK  157  A    between atoms: _371  and  _374
REMARK  158  A    between atoms: _374  and  _375
REMARK  159  A    between atoms: _375  and  _376
REMARK  160  A    between atoms: _378  and  _380
REMARK  161  A    between atoms: _380  and  _381
REMARK  162  A    between atoms: _383  and  _385
REMARK  163  A    between atoms: _385  and  _386
REMARK  164  A    between atoms: _389  and  _391
REMARK  165  A    between atoms: _391  and  _392
REMARK  166  A    between atoms: _391  and  _394
REMARK  167  A    between atoms: _394  and  _395
REMARK  168  A    between atoms: _398  and  _400
REMARK  169  A    between atoms: _400  and  _401
REMARK  170  A    between atoms: _400  and  _403
REMARK  171  A    between atoms: _403  and  _404
REMARK  172  A    between atoms: _407  and  _409
REMARK  173  A    between atoms: _409  and  _410
REMARK  174  A    between atoms: _409  and  _412
REMARK  175  A    between atoms: _412  and  _413
REMARK  176  A    between atoms: _418  and  _420
REMARK  177  A    between atoms: _420  and  _421
REMARK  178  A    between atoms: _420  and  _423
REMARK  179  A    between atoms: _423  and  _424
REMARK  180  A    between atoms: _429  and  _431
REMARK  181  A    between atoms: _431  and  _432
REMARK  182  A    between atoms: _431  and  _434
REMARK  183  A    between atoms: _434  and  _435
REMARK  184  A    between atoms: _438  and  _440
REMARK  185  A    between atoms: _440  and  _441
REMARK  186  A    between atoms: _440  and  _443
REMARK  187  A    between atoms: _443  and  _444
REMARK  188  A    between atoms: _447  and  _449
REMARK  189  A    between atoms: _449  and  _450
REMARK  190  A    between atoms: _449  and  _452
REMARK  191  A    between atoms: _452  and  _453
REMARK  192  A    between atoms: _459  and  _460
REMARK  193  A    between atoms: _465  and  _467
REMARK  194  A    between atoms: _467  and  _468
REMARK  195  A    between atoms: _467  and  _470
REMARK  196  A    between atoms: _470  and  _471
REMARK  197  A    between atoms: _473  and  _475
REMARK  198  A    between atoms: _475  and  _476
REMARK  199  A    between atoms: _475  and  _478
REMARK  200  A    between atoms: _478  and  _479
REMARK  201  A    between atoms: _484  and  _486
REMARK  202  A    between atoms: _486  and  _487
REMARK  203  A    between atoms: _486  and  _489
REMARK  204  A    between atoms: _489  and  _490
REMARK  205  A    between atoms: _493  and  _495
REMARK  206  A    between atoms: _495  and  _496
REMARK  207  A    between atoms: _499  and  _501
REMARK  208  A    between atoms: _501  and  _502
REMARK  209  A    between atoms: _501  and  _504
REMARK  210  A    between atoms: _507  and  _509
REMARK  211  A    between atoms: _509  and  _510
REMARK  212  A    between atoms: _509  and  _512
REMARK  213  A    between atoms: _512  and  _513
REMARK  214  A    between atoms: _518  and  _520
REMARK  215  A    between atoms: _520  and  _521
REMARK  216  A    between atoms: _520  and  _523
REMARK  217  A    between atoms: _523  and  _524
REMARK  218  A    between atoms: _524  and  _525
REMARK  219  A    between atoms: _525  and  _526
REMARK  220  A    between atoms: _526  and  _527
REMARK  221  A    between atoms: _531  and  _533
REMARK  222  A    between atoms: _533  and  _534
REMARK  223  A    between atoms: _533  and  _536
REMARK  224  A    between atoms: _536  and  _537
REMARK  225  A    between atoms: _540  and  _542
REMARK  226  A    between atoms: _542  and  _543
REMARK  227  A    between atoms: _542  and  _545
REMARK  228  A    between atoms: _545  and  _546
REMARK  229  A    between atoms: _549  and  _551
REMARK  230  A    between atoms: _551  and  _552
REMARK  231  A    between atoms: _551  and  _554
REMARK  232  A    between atoms: _554  and  _555
REMARK  233  A    between atoms: _558  and  _560
REMARK  234  A    between atoms: _560  and  _561
REMARK  235  A    between atoms: _560  and  _563
REMARK  236  A    between atoms: _563  and  _564
REMARK  237  A    between atoms: _570  and  _572
REMARK  238  A    between atoms: _572  and  _573
REMARK  239  A    between atoms: _575  and  _577
REMARK  240  A    between atoms: _577  and  _578
REMARK  241  A    between atoms: _577  and  _580
REMARK  242  A    between atoms: _580  and  _581
REMARK  243  A    between atoms: _584  and  _586
REMARK  244  A    between atoms: _586  and  _587
REMARK  245  A    between atoms: _592  and  _593
REMARK  246  A    between atoms: _592  and  _595
REMARK  247  A    between atoms: _595  and  _596
REMARK  248  A    between atoms: _596  and  _597
REMARK  249  A    between atoms: _597  and  _598
REMARK                            x       y       z     vdW  Elec       q    Type
REMARK                         _______ _______ _______ _____ _____    ______ ____
ROOT
ATOM      1  O   HOH     1      38.131  23.771  30.182  0.00  0.00    +0.000 OA
ENDROOT
TORSDOF 0
REMARK  Name = ../refined-set-2016/3d7z/3d7z_pocket.pdb
REMARK  249 active torsions:
REMARK  status: ('A' for Active; 'I' for Inactive)
REMARK    1  A    between atoms: _1  and  _3
REMARK    2  A    between atoms: _3  and  _4
REMARK    3  A    between atoms: _3  and  _6
REMARK    4  A    between atoms: _9  and  _11
REMARK    5  A    between atoms: _11  and  _12
REMARK    6  A    between atoms: _14  and  _16
REMARK    7  A    between atoms: _16  and  _17
REMARK    8  A    between atoms: _16  and  _19
REMARK    9  A    between atoms: _19  and  _20
REMARK   10  A    between atoms: _22  and  _24
REMARK   11  A    between atoms: _24  and  _25
REMARK   12  A    between atoms: _28  and  _30
REMARK   13  A    between atoms: _30  and  _31
REMARK   14  A    between atoms: _30  and  _33
REMARK   15  A    between atoms: _33  and  _34
REMARK   16  A    between atoms: _39  and  _40
REMARK   17  A    between atoms: _42  and  _44
REMARK   18  A    between atoms: _44  and  _45
REMARK   19  A    between atoms: _47  and  _49
REMARK   20  A    between atoms: _49  and  _50
REMARK   21  A    between atoms: _49  and  _52
REMARK   22  A    between atoms: _52  and  _53
REMARK   23  A    between atoms: _55  and  _57
REMARK   24  A    between atoms: _57  and  _58
REMARK   25  A    between atoms: _57  and  _60
REMARK   26  A    between atoms: _63  and  _65
REMARK   27  A    between atoms: _65  and  _66
REMARK   28  A    between atoms: _65  and  _68
REMARK   29  A    between atoms: _70  and  _72
REMARK   30  A    between atoms: _72  and  _73
REMARK   31  A    between atoms: _76  and  _78
REMARK   32  A    between atoms: _78  and  _79
REMARK   33  A    between atoms: _78  and  _81
REMARK   34  A    between atoms: _81  and  _82
REMARK   35  A    between atoms: _82  and  _83
REMARK   36  A    between atoms: _83  and  _84
REMARK   37  A    between atoms: _93  and  _95
REMARK   38  A    between atoms: _95  and  _96
REMARK   39  A    between atoms: _95  and  _98
REMARK   40  A    between atoms: _101  and  _103
REMARK   41  A    between atoms: _103  and  _104
REMARK   42  A    between atoms: _107  and  _109
REMARK   43  A    between atoms: _109  and  _110
REMARK   44  A    between atoms: _109  and  _112
REMARK   45  A    between atoms: _115  and  _117
REMARK   46  A    between atoms: _117  and  _118
REMARK   47  A    between atoms: _117  and  _120
REMARK   48  A    between atoms: _120  and  _121
REMARK   49  A    between atoms: _121  and  _122
REMARK   50  A    between atoms: _122  and  _123
REMARK   51  A    between atoms: _123  and  _124
REMARK   52  A    between atoms: _128  and  _130
REMARK   53  A    between atoms: _130  and  _131
REMARK   54  A    between atoms: _130  and  _133
REMARK   55  A    between atoms: _133  and  _134
REMARK   56  A    between atoms: _134  and  _135
REMARK   57  A    between atoms: _135  and  _136
REMARK   58  A    between atoms: _136  and  _137
REMARK   59  A    between atoms: _141  and  _143
REMARK   60  A    between atoms: _143  and  _144
REMARK   61  A    between atoms: _143  and  _146
REMARK   62  A    between atoms: _146  and  _147
REMARK   63  A    between atoms: _150  and  _152
REMARK   64  A    between atoms: _152  and  _153
REMARK   65  A    between atoms: _152  and  _155
REMARK   66  A    between atoms: _155  and  _156
REMARK   67  A    between atoms: _156  and  _157
REMARK   68  A    between atoms: _157  and  _158
REMARK   69  A    between atoms: _167  and  _169
REMARK   70  A    between atoms: _169  and  _170
REMARK   71  A    between atoms: _169  and  _172
REMARK   72  A    between atoms: _172  and  _173
REMARK   73  A    between atoms: _173  and  _174
REMARK   74  A    between atoms: _174  and  _175
REMARK   75  A    between atoms: _184  and  _186
REMARK   76  A    between atoms: _186  and  _187
REMARK   77  A    between atoms: _186  and  _189
REMARK   78  A    between atoms: _189  and  _190
REMARK   79  A    between atoms: _190  and  _191
REMARK   80  A    between atoms: _194  and  _196
REMARK   81  A    between atoms: _196  and  _197
REMARK   82  A    between atoms: _196  and  _199
REMARK   83  A    between atoms: _199  and  _200
REMARK   84  A    between atoms: _203  and  _205
REMARK   85  A    between atoms: _205  and  _206
REMARK   86  A    between atoms: _205  and  _208
REMARK   87  A    between atoms: _208  and  _209
REMARK   88  A    between atoms: _209  and  _210
REMARK   89  A    between atoms: _210  and  _211
REMARK   90  A    between atoms: _220  and  _222
REMARK   91  A    between atoms: _222  and  _223
REMARK   92  A    between atoms: _222  and  _225
REMARK   93  A    between atoms: _225  and  _226
REMARK   94  A    between atoms: _229  and  _231
REMARK   95  A    between atoms: _231  and  _232
REMARK   96  A    between atoms: _231  and  _234
REMARK   97  A    between atoms: _234  and  _235
REMARK   98  A    between atoms: _238  and  _240
REMARK   99  A    between atoms: _240  and  _241
REMARK  100  A    between atoms: _240  and  _243
REMARK  101  A    between atoms: _243  and  _244
REMARK  102  A    between atoms: _244  and  _245
REMARK  103  A    between atoms: _245  and  _246
REMARK  104  A    between atoms: _246  and  _247
REMARK  105  A    between atoms: _251  and  _253
REMARK  106  A    between atoms: _253  and  _254
REMARK  107  A    between atoms: _253  and  _256
REMARK  108  A    between atoms: _256  and  _257
REMARK  109  A    between atoms: _257  and  _258
REMARK  110  A    between atoms: _260  and  _262
REMARK  111  A    between atoms: _262  and  _263
REMARK  112  A    between atoms: _262  and  _265
REMARK  113  A    between atoms: _268  and  _270
REMARK  114  A    between atoms: _270  and  _271
REMARK  115  A    between atoms: _270  and  _273
REMARK  116  A    between atoms: _273  and  _274
REMARK  117  A    between atoms: _277  and  _279
REMARK  118  A    between atoms: _279  and  _280
REMARK  119  A    between atoms: _282  and  _284
REMARK  120  A    between atoms: _284  and  _285
REMARK  121  A    between atoms: _284  and  _287
REMARK  122  A    between atoms: _287  and  _288
REMARK  123  A    between atoms: _291  and  _293
REMARK  124  A    between atoms: _293  and  _294
REMARK  125  A    between atoms: _293  and  _296
REMARK  126  A    between atoms: _296  and  _297
REMARK  127  A    between atoms: _300  and  _302
REMARK  128  A    between atoms: _302  and  _303
REMARK  129  A    between atoms: _302  and  _305
REMARK  130  A    between atoms: _305  and  _306
REMARK  131  A    between atoms: _309  and  _311
REMARK  132  A    between atoms: _311  and  _312
REMARK  133  A    between atoms: _311  and  _314
REMARK  134  A    between atoms: _314  and  _315
REMARK  135  A    between atoms: _320  and  _321
REMARK  136  A    between atoms: _323  and  _325
REMARK  137  A    between atoms: _325  and  _326
REMARK  138  A    between atoms: _325  and  _328
REMARK  139  A    between atoms: _328  and  _329
REMARK  140  A    between atoms: _332  and  _334
REMARK  141  A    between atoms: _334  and  _335
REMARK  142  A    between atoms: _334  and  _337
REMARK  143  A    between atoms: _340  and  _342
REMARK  144  A    between atoms: _342  and  _343
REMARK  145  A    between atoms: _342  and  _345
REMARK  146  A    between atoms: _345  and  _346
REMARK  147  A    between atoms: _349  and  _351
REMARK  148  A    between atoms: _351  and  _352
REMARK  149  A    between atoms: _351  and  _354
REMARK  150  A    between atoms: _354  and  _355
REMARK  151  A    between atoms: _360  and  _362
REMARK  152  A    between atoms: _362  and  _363
REMARK  153  A    between atoms: _362  and  _365
REMARK  154  A    between atoms: _365  and  _366
REMARK  155  A    between atoms: _369  and  _371
REMARK  156  A    between atoms: _371  and  _372
REMARK  157  A    between atoms: _371  and  _374
REMARK  158  A    between atoms: _374  and  _375
REMARK  159  A    between atoms: _375  and  _376
REMARK  160  A    between atoms: _378  and  _380
REMARK  161  A    between atoms: _380  and  _381
REMARK  162  A    between atoms: _383  and  _385
REMARK  163  A    between atoms: _385  and  _386
REMARK  164  A    between atoms: _389  and  _391
REMARK  165  A    between atoms: _391  and  _392
REMARK  166  A    between atoms: _391  and  _394
REMARK  167  A    between atoms: _394  and  _395
REMARK  168  A    between atoms: _398  and  _400
REMARK  169  A    between atoms: _400  and  _401
REMARK  170  A    between atoms: _400  and  _403
REMARK  171  A    between atoms: _403  and  _404
REMARK  172  A    between atoms: _407  and  _409
REMARK  173  A    between atoms: _409  and  _410
REMARK  174  A    between atoms: _409  and  _412
REMARK  175  A    between atoms: _412  and  _413
REMARK  176  A    between atoms: _418  and  _420
REMARK  177  A    between atoms: _420  and  _421
REMARK  178  A    between atoms: _420  and  _423
REMARK  179  A    between atoms: _423  and  _424
REMARK  180  A    between atoms: _429  and  _431
REMARK  181  A    between atoms: _431  and  _432
REMARK  182  A    between atoms: _431  and  _434
REMARK  183  A    between atoms: _434  and  _435
REMARK  184  A    between atoms: _438  and  _440
REMARK  185  A    between atoms: _440  and  _441
REMARK  186  A    between atoms: _440  and  _443
REMARK  187  A    between atoms: _443  and  _444
REMARK  188  A    between atoms: _447  and  _449
REMARK  189  A    between atoms: _449  and  _450
REMARK  190  A    between atoms: _449  and  _452
REMARK  191  A    between atoms: _452  and  _453
REMARK  192  A    between atoms: _459  and  _460
REMARK  193  A    between atoms: _465  and  _467
REMARK  194  A    between atoms: _467  and  _468
REMARK  195  A    between atoms: _467  and  _470
REMARK  196  A    between atoms: _470  and  _471
REMARK  197  A    between atoms: _473  and  _475
REMARK  198  A    between atoms: _475  and  _476
REMARK  199  A    between atoms: _475  and  _478
REMARK  200  A    between atoms: _478  and  _479
REMARK  201  A    between atoms: _484  and  _486
REMARK  202  A    between atoms: _486  and  _487
REMARK  203  A    between atoms: _486  and  _489
REMARK  204  A    between atoms: _489  and  _490
REMARK  205  A    between atoms: _493  and  _495
REMARK  206  A    between atoms: _495  and  _496
REMARK  207  A    between atoms: _499  and  _501
REMARK  208  A    between atoms: _501  and  _502
REMARK  209  A    between atoms: _501  and  _504
REMARK  210  A    between atoms: _507  and  _509
REMARK  211  A    between atoms: _509  and  _510
REMARK  212  A    between atoms: _509  and  _512
REMARK  213  A    between atoms: _512  and  _513
REMARK  214  A    between atoms: _518  and  _520
REMARK  215  A    between atoms: _520  and  _521
REMARK  216  A    between atoms: _520  and  _523
REMARK  217  A    between atoms: _523  and  _524
REMARK  218  A    between atoms: _524  and  _525
REMARK  219  A    between atoms: _525  and  _526
REMARK  220  A    between atoms: _526  and  _527
REMARK  221  A    between atoms: _531  and  _533
REMARK  222  A    between atoms: _533  and  _534
REMARK  223  A    between atoms: _533  and  _536
REMARK  224  A    between atoms: _536  and  _537
REMARK  225  A    between atoms: _540  and  _542
REMARK  226  A    between atoms: _542  and  _543
REMARK  227  A    between atoms: _542  and  _545
REMARK  228  A    between atoms: _545  and  _546
REMARK  229  A    between atoms: _549  and  _551
REMARK  230  A    between atoms: _551  and  _552
REMARK  231  A    between atoms: _551  and  _554
REMARK  232  A    between atoms: _554  and  _555
REMARK  233  A    between atoms: _558  and  _560
REMARK  234  A    between atoms: _560  and  _561
REMARK  235  A    between atoms: _560  and  _563
REMARK  236  A    between atoms: _563  and  _564
REMARK  237  A    between atoms: _570  and  _572
REMARK  238  A    between atoms: _572  and  _573
REMARK  239  A    between atoms: _575  and  _577
REMARK  240  A    between atoms: _577  and  _578
REMARK  241  A    between atoms: _577  and  _580
REMARK  242  A    between atoms: _580  and  _581
REMARK  243  A    between atoms: _584  and  _586
REMARK  244  A    between atoms: _586  and  _587
REMARK  245  A    between atoms: _592  and  _593
REMARK  246  A    between atoms: _592  and  _595
REMARK  247  A    between atoms: _595  and  _596
REMARK  248  A    between atoms: _596  and  _597
REMARK  249  A    between atoms: _597  and  _598
REMARK                            x       y       z     vdW  Elec       q    Type
REMARK                         _______ _______ _______ _____ _____    ______ ____
ROOT
ATOM      1  O   HOH     1      46.888  41.847  31.026  0.00  0.00    +0.000 OA
ENDROOT
TORSDOF 0
REMARK  Name = ../refined-set-2016/3d7z/3d7z_pocket.pdb
REMARK  249 active torsions:
REMARK  status: ('A' for Active; 'I' for Inactive)
REMARK    1  A    between atoms: _1  and  _3
REMARK    2  A    between atoms: _3  and  _4
REMARK    3  A    between atoms: _3  and  _6
REMARK    4  A    between atoms: _9  and  _11
REMARK    5  A    between atoms: _11  and  _12
REMARK    6  A    between atoms: _14  and  _16
REMARK    7  A    between atoms: _16  and  _17
REMARK    8  A    between atoms: _16  and  _19
REMARK    9  A    between atoms: _19  and  _20
REMARK   10  A    between atoms: _22  and  _24
REMARK   11  A    between atoms: _24  and  _25
REMARK   12  A    between atoms: _28  and  _30
REMARK   13  A    between atoms: _30  and  _31
REMARK   14  A    between atoms: _30  and  _33
REMARK   15  A    between atoms: _33  and  _34
REMARK   16  A    between atoms: _39  and  _40
REMARK   17  A    between atoms: _42  and  _44
REMARK   18  A    between atoms: _44  and  _45
REMARK   19  A    between atoms: _47  and  _49
REMARK   20  A    between atoms: _49  and  _50
REMARK   21  A    between atoms: _49  and  _52
REMARK   22  A    between atoms: _52  and  _53
REMARK   23  A    between atoms: _55  and  _57
REMARK   24  A    between atoms: _57  and  _58
REMARK   25  A    between atoms: _57  and  _60
REMARK   26  A    between atoms: _63  and  _65
REMARK   27  A    between atoms: _65  and  _66
REMARK   28  A    between atoms: _65  and  _68
REMARK   29  A    between atoms: _70  and  _72
REMARK   30  A    between atoms: _72  and  _73
REMARK   31  A    between atoms: _76  and  _78
REMARK   32  A    between atoms: _78  and  _79
REMARK   33  A    between atoms: _78  and  _81
REMARK   34  A    between atoms: _81  and  _82
REMARK   35  A    between atoms: _82  and  _83
REMARK   36  A    between atoms: _83  and  _84
REMARK   37  A    between atoms: _93  and  _95
REMARK   38  A    between atoms: _95  and  _96
REMARK   39  A    between atoms: _95  and  _98
REMARK   40  A    between atoms: _101  and  _103
REMARK   41  A    between atoms: _103  and  _104
REMARK   42  A    between atoms: _107  and  _109
REMARK   43  A    between atoms: _109  and  _110
REMARK   44  A    between atoms: _109  and  _112
REMARK   45  A    between atoms: _115  and  _117
REMARK   46  A    between atoms: _117  and  _118
REMARK   47  A    between atoms: _117  and  _120
REMARK   48  A    between atoms: _120  and  _121
REMARK   49  A    between atoms: _121  and  _122
REMARK   50  A    between atoms: _122  and  _123
REMARK   51  A    between atoms: _123  and  _124
REMARK   52  A    between atoms: _128  and  _130
REMARK   53  A    between atoms: _130  and  _131
REMARK   54  A    between atoms: _130  and  _133
REMARK   55  A    between atoms: _133  and  _134
REMARK   56  A    between atoms: _134  and  _135
REMARK   57  A    between atoms: _135  and  _136
REMARK   58  A    between atoms: _136  and  _137
REMARK   59  A    between atoms: _141  and  _143
REMARK   60  A    between atoms: _143  and  _144
REMARK   61  A    between atoms: _143  and  _146
REMARK   62  A    between atoms: _146  and  _147
REMARK   63  A    between atoms: _150  and  _152
REMARK   64  A    between atoms: _152  and  _153
REMARK   65  A    between atoms: _152  and  _155
REMARK   66  A    between atoms: _155  and  _156
REMARK   67  A    between atoms: _156  and  _157
REMARK   68  A    between atoms: _157  and  _158
REMARK   69  A    between atoms: _167  and  _169
REMARK   70  A    between atoms: _169  and  _170
REMARK   71  A    between atoms: _169  and  _172
REMARK   72  A    between atoms: _172  and  _173
REMARK   73  A    between atoms: _173  and  _174
REMARK   74  A    between atoms: _174  and  _175
REMARK   75  A    between atoms: _184  and  _186
REMARK   76  A    between atoms: _186  and  _187
REMARK   77  A    between atoms: _186  and  _189
REMARK   78  A    between atoms: _189  and  _190
REMARK   79  A    between atoms: _190  and  _191
REMARK   80  A    between atoms: _194  and  _196
REMARK   81  A    between atoms: _196  and  _197
REMARK   82  A    between atoms: _196  and  _199
REMARK   83  A    between atoms: _199  and  _200
REMARK   84  A    between atoms: _203  and  _205
REMARK   85  A    between atoms: _205  and  _206
REMARK   86  A    between atoms: _205  and  _208
REMARK   87  A    between atoms: _208  and  _209
REMARK   88  A    between atoms: _209  and  _210
REMARK   89  A    between atoms: _210  and  _211
REMARK   90  A    between atoms: _220  and  _222
REMARK   91  A    between atoms: _222  and  _223
REMARK   92  A    between atoms: _222  and  _225
REMARK   93  A    between atoms: _225  and  _226
REMARK   94  A    between atoms: _229  and  _231
REMARK   95  A    between atoms: _231  and  _232
REMARK   96  A    between atoms: _231  and  _234
REMARK   97  A    between atoms: _234  and  _235
REMARK   98  A    between atoms: _238  and  _240
REMARK   99  A    between atoms: _240  and  _241
REMARK  100  A    between atoms: _240  and  _243
REMARK  101  A    between atoms: _243  and  _244
REMARK  102  A    between atoms: _244  and  _245
REMARK  103  A    between atoms: _245  and  _246
REMARK  104  A    between atoms: _246  and  _247
REMARK  105  A    between atoms: _251  and  _253
REMARK  106  A    between atoms: _253  and  _254
REMARK  107  A    between atoms: _253  and  _256
REMARK  108  A    between atoms: _256  and  _257
REMARK  109  A    between atoms: _257  and  _258
REMARK  110  A    between atoms: _260  and  _262
REMARK  111  A    between atoms: _262  and  _263
REMARK  112  A    between atoms: _262  and  _265
REMARK  113  A    between atoms: _268  and  _270
REMARK  114  A    between atoms: _270  and  _271
REMARK  115  A    between atoms: _270  and  _273
REMARK  116  A    between atoms: _273  and  _274
REMARK  117  A    between atoms: _277  and  _279
REMARK  118  A    between atoms: _279  and  _280
REMARK  119  A    between atoms: _282  and  _284
REMARK  120  A    between atoms: _284  and  _285
REMARK  121  A    between atoms: _284  and  _287
REMARK  122  A    between atoms: _287  and  _288
REMARK  123  A    between atoms: _291  and  _293
REMARK  124  A    between atoms: _293  and  _294
REMARK  125  A    between atoms: _293  and  _296
REMARK  126  A    between atoms: _296  and  _297
REMARK  127  A    between atoms: _300  and  _302
REMARK  128  A    between atoms: _302  and  _303
REMARK  129  A    between atoms: _302  and  _305
REMARK  130  A    between atoms: _305  and  _306
REMARK  131  A    between atoms: _309  and  _311
REMARK  132  A    between atoms: _311  and  _312
REMARK  133  A    between atoms: _311  and  _314
REMARK  134  A    between atoms: _314  and  _315
REMARK  135  A    between atoms: _320  and  _321
REMARK  136  A    between atoms: _323  and  _325
REMARK  137  A    between atoms: _325  and  _326
REMARK  138  A    between atoms: _325  and  _328
REMARK  139  A    between atoms: _328  and  _329
REMARK  140  A    between atoms: _332  and  _334
REMARK  141  A    between atoms: _334  and  _335
REMARK  142  A    between atoms: _334  and  _337
REMARK  143  A    between atoms: _340  and  _342
REMARK  144  A    between atoms: _342  and  _343
REMARK  145  A    between atoms: _342  and  _345
REMARK  146  A    between atoms: _345  and  _346
REMARK  147  A    between atoms: _349  and  _351
REMARK  148  A    between atoms: _351  and  _352
REMARK  149  A    between atoms: _351  and  _354
REMARK  150  A    between atoms: _354  and  _355
REMARK  151  A    between atoms: _360  and  _362
REMARK  152  A    between atoms: _362  and  _363
REMARK  153  A    between atoms: _362  and  _365
REMARK  154  A    between atoms: _365  and  _366
REMARK  155  A    between atoms: _369  and  _371
REMARK  156  A    between atoms: _371  and  _372
REMARK  157  A    between atoms: _371  and  _374
REMARK  158  A    between atoms: _374  and  _375
REMARK  159  A    between atoms: _375  and  _376
REMARK  160  A    between atoms: _378  and  _380
REMARK  161  A    between atoms: _380  and  _381
REMARK  162  A    between atoms: _383  and  _385
REMARK  163  A    between atoms: _385  and  _386
REMARK  164  A    between atoms: _389  and  _391
REMARK  165  A    between atoms: _391  and  _392
REMARK  166  A    between atoms: _391  and  _394
REMARK  167  A    between atoms: _394  and  _395
REMARK  168  A    between atoms: _398  and  _400
REMARK  169  A    between atoms: _400  and  _401
REMARK  170  A    between atoms: _400  and  _403
REMARK  171  A    between atoms: _403  and  _404
REMARK  172  A    between atoms: _407  and  _409
REMARK  173  A    between atoms: _409  and  _410
REMARK  174  A    between atoms: _409  and  _412
REMARK  175  A    between atoms: _412  and  _413
REMARK  176  A    between atoms: _418  and  _420
REMARK  177  A    between atoms: _420  and  _421
REMARK  178  A    between atoms: _420  and  _423
REMARK  179  A    between atoms: _423  and  _424
REMARK  180  A    between atoms: _429  and  _431
REMARK  181  A    between atoms: _431  and  _432
REMARK  182  A    between atoms: _431  and  _434
REMARK  183  A    between atoms: _434  and  _435
REMARK  184  A    between atoms: _438  and  _440
REMARK  185  A    between atoms: _440  and  _441
REMARK  186  A    between atoms: _440  and  _443
REMARK  187  A    between atoms: _443  and  _444
REMARK  188  A    between atoms: _447  and  _449
REMARK  189  A    between atoms: _449  and  _450
REMARK  190  A    between atoms: _449  and  _452
REMARK  191  A    between atoms: _452  and  _453
REMARK  192  A    between atoms: _459  and  _460
REMARK  193  A    between atoms: _465  and  _467
REMARK  194  A    between atoms: _467  and  _468
REMARK  195  A    between atoms: _467  and  _470
REMARK  196  A    between atoms: _470  and  _471
REMARK  197  A    between atoms: _473  and  _475
REMARK  198  A    between atoms: _475  and  _476
REMARK  199  A    between atoms: _475  and  _478
REMARK  200  A    between atoms: _478  and  _479
REMARK  201  A    between atoms: _484  and  _486
REMARK  202  A    between atoms: _486  and  _487
REMARK  203  A    between atoms: _486  and  _489
REMARK  204  A    between atoms: _489  and  _490
REMARK  205  A    between atoms: _493  and  _495
REMARK  206  A    between atoms: _495  and  _496
REMARK  207  A    between atoms: _499  and  _501
REMARK  208  A    between atoms: _501  and  _502
REMARK  209  A    between atoms: _501  and  _504
REMARK  210  A    between atoms: _507  and  _509
REMARK  211  A    between atoms: _509  and  _510
REMARK  212  A    between atoms: _509  and  _512
REMARK  213  A    between atoms: _512  and  _513
REMARK  214  A    between atoms: _518  and  _520
REMARK  215  A    between atoms: _520  and  _521
REMARK  216  A    between atoms: _520  and  _523
REMARK  217  A    between atoms: _523  and  _524
REMARK  218  A    between atoms: _524  and  _525
REMARK  219  A    between atoms: _525  and  _526
REMARK  220  A    between atoms: _526  and  _527
REMARK  221  A    between atoms: _531  and  _533
REMARK  222  A    between atoms: _533  and  _534
REMARK  223  A    between atoms: _533  and  _536
REMARK  224  A    between atoms: _536  and  _537
REMARK  225  A    between atoms: _540  and  _542
REMARK  226  A    between atoms: _542  and  _543
REMARK  227  A    between atoms: _542  and  _545
REMARK  228  A    between atoms: _545  and  _546
REMARK  229  A    between atoms: _549  and  _551
REMARK  230  A    between atoms: _551  and  _552
REMARK  231  A    between atoms: _551  and  _554
REMARK  232  A    between atoms: _554  and  _555
REMARK  233  A    between atoms: _558  and  _560
REMARK  234  A    between atoms: _560  and  _561
REMARK  235  A    between atoms: _560  and  _563
REMARK  236  A    between atoms: _563  and  _564
REMARK  237  A    between atoms: _570  and  _572
REMARK  238  A    between atoms: _572  and  _573
REMARK  239  A    between atoms: _575  and  _577
REMARK  240  A    between atoms: _577  and  _578
REMARK  241  A    between atoms: _577  and  _580
REMARK  242  A    between atoms: _580  and  _581
REMARK  243  A    between atoms: _584  and  _586
REMARK  244  A    between atoms: _586  and  _587
REMARK  245  A    between atoms: _592  and  _593
REMARK  246  A    between atoms: _592  and  _595
REMARK  247  A    between atoms: _595  and  _596
REMARK  248  A    between atoms: _596  and  _597
REMARK  249  A    between atoms: _597  and  _598
REMARK                            x       y       z     vdW  Elec       q    Type
REMARK                         _______ _______ _______ _____ _____    ______ ____
ROOT
ATOM      1  O   HOH     1      53.936  34.054  32.184  0.00  0.00    +0.000 OA
ENDROOT
TORSDOF 0
REMARK  Name = ../refined-set-2016/3d7z/3d7z_pocket.pdb
REMARK  249 active torsions:
REMARK  status: ('A' for Active; 'I' for Inactive)
REMARK    1  A    between atoms: _1  and  _3
REMARK    2  A    between atoms: _3  and  _4
REMARK    3  A    between atoms: _3  and  _6
REMARK    4  A    between atoms: _9  and  _11
REMARK    5  A    between atoms: _11  and  _12
REMARK    6  A    between atoms: _14  and  _16
REMARK    7  A    between atoms: _16  and  _17
REMARK    8  A    between atoms: _16  and  _19
REMARK    9  A    between atoms: _19  and  _20
REMARK   10  A    between atoms: _22  and  _24
REMARK   11  A    between atoms: _24  and  _25
REMARK   12  A    between atoms: _28  and  _30
REMARK   13  A    between atoms: _30  and  _31
REMARK   14  A    between atoms: _30  and  _33
REMARK   15  A    between atoms: _33  and  _34
REMARK   16  A    between atoms: _39  and  _40
REMARK   17  A    between atoms: _42  and  _44
REMARK   18  A    between atoms: _44  and  _45
REMARK   19  A    between atoms: _47  and  _49
REMARK   20  A    between atoms: _49  and  _50
REMARK   21  A    between atoms: _49  and  _52
REMARK   22  A    between atoms: _52  and  _53
REMARK   23  A    between atoms: _55  and  _57
REMARK   24  A    between atoms: _57  and  _58
REMARK   25  A    between atoms: _57  and  _60
REMARK   26  A    between atoms: _63  and  _65
REMARK   27  A    between atoms: _65  and  _66
REMARK   28  A    between atoms: _65  and  _68
REMARK   29  A    between atoms: _70  and  _72
REMARK   30  A    between atoms: _72  and  _73
REMARK   31  A    between atoms: _76  and  _78
REMARK   32  A    between atoms: _78  and  _79
REMARK   33  A    between atoms: _78  and  _81
REMARK   34  A    between atoms: _81  and  _82
REMARK   35  A    between atoms: _82  and  _83
REMARK   36  A    between atoms: _83  and  _84
REMARK   37  A    between atoms: _93  and  _95
REMARK   38  A    between atoms: _95  and  _96
REMARK   39  A    between atoms: _95  and  _98
REMARK   40  A    between atoms: _101  and  _103
REMARK   41  A    between atoms: _103  and  _104
REMARK   42  A    between atoms: _107  and  _109
REMARK   43  A    between atoms: _109  and  _110
REMARK   44  A    between atoms: _109  and  _112
REMARK   45  A    between atoms: _115  and  _117
REMARK   46  A    between atoms: _117  and  _118
REMARK   47  A    between atoms: _117  and  _120
REMARK   48  A    between atoms: _120  and  _121
REMARK   49  A    between atoms: _121  and  _122
REMARK   50  A    between atoms: _122  and  _123
REMARK   51  A    between atoms: _123  and  _124
REMARK   52  A    between atoms: _128  and  _130
REMARK   53  A    between atoms: _130  and  _131
REMARK   54  A    between atoms: _130  and  _133
REMARK   55  A    between atoms: _133  and  _134
REMARK   56  A    between atoms: _134  and  _135
REMARK   57  A    between atoms: _135  and  _136
REMARK   58  A    between atoms: _136  and  _137
REMARK   59  A    between atoms: _141  and  _143
REMARK   60  A    between atoms: _143  and  _144
REMARK   61  A    between atoms: _143  and  _146
REMARK   62  A    between atoms: _146  and  _147
REMARK   63  A    between atoms: _150  and  _152
REMARK   64  A    between atoms: _152  and  _153
REMARK   65  A    between atoms: _152  and  _155
REMARK   66  A    between atoms: _155  and  _156
REMARK   67  A    between atoms: _156  and  _157
REMARK   68  A    between atoms: _157  and  _158
REMARK   69  A    between atoms: _167  and  _169
REMARK   70  A    between atoms: _169  and  _170
REMARK   71  A    between atoms: _169  and  _172
REMARK   72  A    between atoms: _172  and  _173
REMARK   73  A    between atoms: _173  and  _174
REMARK   74  A    between atoms: _174  and  _175
REMARK   75  A    between atoms: _184  and  _186
REMARK   76  A    between atoms: _186  and  _187
REMARK   77  A    between atoms: _186  and  _189
REMARK   78  A    between atoms: _189  and  _190
REMARK   79  A    between atoms: _190  and  _191
REMARK   80  A    between atoms: _194  and  _196
REMARK   81  A    between atoms: _196  and  _197
REMARK   82  A    between atoms: _196  and  _199
REMARK   83  A    between atoms: _199  and  _200
REMARK   84  A    between atoms: _203  and  _205
REMARK   85  A    between atoms: _205  and  _206
REMARK   86  A    between atoms: _205  and  _208
REMARK   87  A    between atoms: _208  and  _209
REMARK   88  A    between atoms: _209  and  _210
REMARK   89  A    between atoms: _210  and  _211
REMARK   90  A    between atoms: _220  and  _222
REMARK   91  A    between atoms: _222  and  _223
REMARK   92  A    between atoms: _222  and  _225
REMARK   93  A    between atoms: _225  and  _226
REMARK   94  A    between atoms: _229  and  _231
REMARK   95  A    between atoms: _231  and  _232
REMARK   96  A    between atoms: _231  and  _234
REMARK   97  A    between atoms: _234  and  _235
REMARK   98  A    between atoms: _238  and  _240
REMARK   99  A    between atoms: _240  and  _241
REMARK  100  A    between atoms: _240  and  _243
REMARK  101  A    between atoms: _243  and  _244
REMARK  102  A    between atoms: _244  and  _245
REMARK  103  A    between atoms: _245  and  _246
REMARK  104  A    between atoms: _246  and  _247
REMARK  105  A    between atoms: _251  and  _253
REMARK  106  A    between atoms: _253  and  _254
REMARK  107  A    between atoms: _253  and  _256
REMARK  108  A    between atoms: _256  and  _257
REMARK  109  A    between atoms: _257  and  _258
REMARK  110  A    between atoms: _260  and  _262
REMARK  111  A    between atoms: _262  and  _263
REMARK  112  A    between atoms: _262  and  _265
REMARK  113  A    between atoms: _268  and  _270
REMARK  114  A    between atoms: _270  and  _271
REMARK  115  A    between atoms: _270  and  _273
REMARK  116  A    between atoms: _273  and  _274
REMARK  117  A    between atoms: _277  and  _279
REMARK  118  A    between atoms: _279  and  _280
REMARK  119  A    between atoms: _282  and  _284
REMARK  120  A    between atoms: _284  and  _285
REMARK  121  A    between atoms: _284  and  _287
REMARK  122  A    between atoms: _287  and  _288
REMARK  123  A    between atoms: _291  and  _293
REMARK  124  A    between atoms: _293  and  _294
REMARK  125  A    between atoms: _293  and  _296
REMARK  126  A    between atoms: _296  and  _297
REMARK  127  A    between atoms: _300  and  _302
REMARK  128  A    between atoms: _302  and  _303
REMARK  129  A    between atoms: _302  and  _305
REMARK  130  A    between atoms: _305  and  _306
REMARK  131  A    between atoms: _309  and  _311
REMARK  132  A    between atoms: _311  and  _312
REMARK  133  A    between atoms: _311  and  _314
REMARK  134  A    between atoms: _314  and  _315
REMARK  135  A    between atoms: _320  and  _321
REMARK  136  A    between atoms: _323  and  _325
REMARK  137  A    between atoms: _325  and  _326
REMARK  138  A    between atoms: _325  and  _328
REMARK  139  A    between atoms: _328  and  _329
REMARK  140  A    between atoms: _332  and  _334
REMARK  141  A    between atoms: _334  and  _335
REMARK  142  A    between atoms: _334  and  _337
REMARK  143  A    between atoms: _340  and  _342
REMARK  144  A    between atoms: _342  and  _343
REMARK  145  A    between atoms: _342  and  _345
REMARK  146  A    between atoms: _345  and  _346
REMARK  147  A    between atoms: _349  and  _351
REMARK  148  A    between atoms: _351  and  _352
REMARK  149  A    between atoms: _351  and  _354
REMARK  150  A    between atoms: _354  and  _355
REMARK  151  A    between atoms: _360  and  _362
REMARK  152  A    between atoms: _362  and  _363
REMARK  153  A    between atoms: _362  and  _365
REMARK  154  A    between atoms: _365  and  _366
REMARK  155  A    between atoms: _369  and  _371
REMARK  156  A    between atoms: _371  and  _372
REMARK  157  A    between atoms: _371  and  _374
REMARK  158  A    between atoms: _374  and  _375
REMARK  159  A    between atoms: _375  and  _376
REMARK  160  A    between atoms: _378  and  _380
REMARK  161  A    between atoms: _380  and  _381
REMARK  162  A    between atoms: _383  and  _385
REMARK  163  A    between atoms: _385  and  _386
REMARK  164  A    between atoms: _389  and  _391
REMARK  165  A    between atoms: _391  and  _392
REMARK  166  A    between atoms: _391  and  _394
REMARK  167  A    between atoms: _394  and  _395
REMARK  168  A    between atoms: _398  and  _400
REMARK  169  A    between atoms: _400  and  _401
REMARK  170  A    between atoms: _400  and  _403
REMARK  171  A    between atoms: _403  and  _404
REMARK  172  A    between atoms: _407  and  _409
REMARK  173  A    between atoms: _409  and  _410
REMARK  174  A    between atoms: _409  and  _412
REMARK  175  A    between atoms: _412  and  _413
REMARK  176  A    between atoms: _418  and  _420
REMARK  177  A    between atoms: _420  and  _421
REMARK  178  A    between atoms: _420  and  _423
REMARK  179  A    between atoms: _423  and  _424
REMARK  180  A    between atoms: _429  and  _431
REMARK  181  A    between atoms: _431  and  _432
REMARK  182  A    between atoms: _431  and  _434
REMARK  183  A    between atoms: _434  and  _435
REMARK  184  A    between atoms: _438  and  _440
REMARK  185  A    between atoms: _440  and  _441
REMARK  186  A    between atoms: _440  and  _443
REMARK  187  A    between atoms: _443  and  _444
REMARK  188  A    between atoms: _447  and  _449
REMARK  189  A    between atoms: _449  and  _450
REMARK  190  A    between atoms: _449  and  _452
REMARK  191  A    between atoms: _452  and  _453
REMARK  192  A    between atoms: _459  and  _460
REMARK  193  A    between atoms: _465  and  _467
REMARK  194  A    between atoms: _467  and  _468
REMARK  195  A    between atoms: _467  and  _470
REMARK  196  A    between atoms: _470  and  _471
REMARK  197  A    between atoms: _473  and  _475
REMARK  198  A    between atoms: _475  and  _476
REMARK  199  A    between atoms: _475  and  _478
REMARK  200  A    between atoms: _478  and  _479
REMARK  201  A    between atoms: _484  and  _486
REMARK  202  A    between atoms: _486  and  _487
REMARK  203  A    between atoms: _486  and  _489
REMARK  204  A    between atoms: _489  and  _490
REMARK  205  A    between atoms: _493  and  _495
REMARK  206  A    between atoms: _495  and  _496
REMARK  207  A    between atoms: _499  and  _501
REMARK  208  A    between atoms: _501  and  _502
REMARK  209  A    between atoms: _501  and  _504
REMARK  210  A    between atoms: _507  and  _509
REMARK  211  A    between atoms: _509  and  _510
REMARK  212  A    between atoms: _509  and  _512
REMARK  213  A    between atoms: _512  and  _513
REMARK  214  A    between atoms: _518  and  _520
REMARK  215  A    between atoms: _520  and  _521
REMARK  216  A    between atoms: _520  and  _523
REMARK  217  A    between atoms: _523  and  _524
REMARK  218  A    between atoms: _524  and  _525
REMARK  219  A    between atoms: _525  and  _526
REMARK  220  A    between atoms: _526  and  _527
REMARK  221  A    between atoms: _531  and  _533
REMARK  222  A    between atoms: _533  and  _534
REMARK  223  A    between atoms: _533  and  _536
REMARK  224  A    between atoms: _536  and  _537
REMARK  225  A    between atoms: _540  and  _542
REMARK  226  A    between atoms: _542  and  _543
REMARK  227  A    between atoms: _542  and  _545
REMARK  228  A    between atoms: _545  and  _546
REMARK  229  A    between atoms: _549  and  _551
REMARK  230  A    between atoms: _551  and  _552
REMARK  231  A    between atoms: _551  and  _554
REMARK  232  A    between atoms: _554  and  _555
REMARK  233  A    between atoms: _558  and  _560
REMARK  234  A    between atoms: _560  and  _561
REMARK  235  A    between atoms: _560  and  _563
REMARK  236  A    between atoms: _563  and  _564
REMARK  237  A    between atoms: _570  and  _572
REMARK  238  A    between atoms: _572  and  _573
REMARK  239  A    between atoms: _575  and  _577
REMARK  240  A    between atoms: _577  and  _578
REMARK  241  A    between atoms: _577  and  _580
REMARK  242  A    between atoms: _580  and  _581
REMARK  243  A    between atoms: _584  and  _586
REMARK  244  A    between atoms: _586  and  _587
REMARK  245  A    between atoms: _592  and  _593
REMARK  246  A    between atoms: _592  and  _595
REMARK  247  A    between atoms: _595  and  _596
REMARK  248  A    between atoms: _596  and  _597
REMARK  249  A    between atoms: _597  and  _598
REMARK                            x       y       z     vdW  Elec       q    Type
REMARK                         _______ _______ _______ _____ _____    ______ ____
ROOT
ATOM      1  O   HOH     1      42.015  27.145  31.792  0.00  0.00    +0.000 OA
ENDROOT
TORSDOF 0
REMARK  Name = ../refined-set-2016/3d7z/3d7z_pocket.pdb
REMARK  249 active torsions:
REMARK  status: ('A' for Active; 'I' for Inactive)
REMARK    1  A    between atoms: _1  and  _3
REMARK    2  A    between atoms: _3  and  _4
REMARK    3  A    between atoms: _3  and  _6
REMARK    4  A    between atoms: _9  and  _11
REMARK    5  A    between atoms: _11  and  _12
REMARK    6  A    between atoms: _14  and  _16
REMARK    7  A    between atoms: _16  and  _17
REMARK    8  A    between atoms: _16  and  _19
REMARK    9  A    between atoms: _19  and  _20
REMARK   10  A    between atoms: _22  and  _24
REMARK   11  A    between atoms: _24  and  _25
REMARK   12  A    between atoms: _28  and  _30
REMARK   13  A    between atoms: _30  and  _31
REMARK   14  A    between atoms: _30  and  _33
REMARK   15  A    between atoms: _33  and  _34
REMARK   16  A    between atoms: _39  and  _40
REMARK   17  A    between atoms: _42  and  _44
REMARK   18  A    between atoms: _44  and  _45
REMARK   19  A    between atoms: _47  and  _49
REMARK   20  A    between atoms: _49  and  _50
REMARK   21  A    between atoms: _49  and  _52
REMARK   22  A    between atoms: _52  and  _53
REMARK   23  A    between atoms: _55  and  _57
REMARK   24  A    between atoms: _57  and  _58
REMARK   25  A    between atoms: _57  and  _60
REMARK   26  A    between atoms: _63  and  _65
REMARK   27  A    between atoms: _65  and  _66
REMARK   28  A    between atoms: _65  and  _68
REMARK   29  A    between atoms: _70  and  _72
REMARK   30  A    between atoms: _72  and  _73
REMARK   31  A    between atoms: _76  and  _78
REMARK   32  A    between atoms: _78  and  _79
REMARK   33  A    between atoms: _78  and  _81
REMARK   34  A    between atoms: _81  and  _82
REMARK   35  A    between atoms: _82  and  _83
REMARK   36  A    between atoms: _83  and  _84
REMARK   37  A    between atoms: _93  and  _95
REMARK   38  A    between atoms: _95  and  _96
REMARK   39  A    between atoms: _95  and  _98
REMARK   40  A    between atoms: _101  and  _103
REMARK   41  A    between atoms: _103  and  _104
REMARK   42  A    between atoms: _107  and  _109
REMARK   43  A    between atoms: _109  and  _110
REMARK   44  A    between atoms: _109  and  _112
REMARK   45  A    between atoms: _115  and  _117
REMARK   46  A    between atoms: _117  and  _118
REMARK   47  A    between atoms: _117  and  _120
REMARK   48  A    between atoms: _120  and  _121
REMARK   49  A    between atoms: _121  and  _122
REMARK   50  A    between atoms: _122  and  _123
REMARK   51  A    between atoms: _123  and  _124
REMARK   52  A    between atoms: _128  and  _130
REMARK   53  A    between atoms: _130  and  _131
REMARK   54  A    between atoms: _130  and  _133
REMARK   55  A    between atoms: _133  and  _134
REMARK   56  A    between atoms: _134  and  _135
REMARK   57  A    between atoms: _135  and  _136
REMARK   58  A    between atoms: _136  and  _137
REMARK   59  A    between atoms: _141  and  _143
REMARK   60  A    between atoms: _143  and  _144
REMARK   61  A    between atoms: _143  and  _146
REMARK   62  A    between atoms: _146  and  _147
REMARK   63  A    between atoms: _150  and  _152
REMARK   64  A    between atoms: _152  and  _153
REMARK   65  A    between atoms: _152  and  _155
REMARK   66  A    between atoms: _155  and  _156
REMARK   67  A    between atoms: _156  and  _157
REMARK   68  A    between atoms: _157  and  _158
REMARK   69  A    between atoms: _167  and  _169
REMARK   70  A    between atoms: _169  and  _170
REMARK   71  A    between atoms: _169  and  _172
REMARK   72  A    between atoms: _172  and  _173
REMARK   73  A    between atoms: _173  and  _174
REMARK   74  A    between atoms: _174  and  _175
REMARK   75  A    between atoms: _184  and  _186
REMARK   76  A    between atoms: _186  and  _187
REMARK   77  A    between atoms: _186  and  _189
REMARK   78  A    between atoms: _189  and  _190
REMARK   79  A    between atoms: _190  and  _191
REMARK   80  A    between atoms: _194  and  _196
REMARK   81  A    between atoms: _196  and  _197
REMARK   82  A    between atoms: _196  and  _199
REMARK   83  A    between atoms: _199  and  _200
REMARK   84  A    between atoms: _203  and  _205
REMARK   85  A    between atoms: _205  and  _206
REMARK   86  A    between atoms: _205  and  _208
REMARK   87  A    between atoms: _208  and  _209
REMARK   88  A    between atoms: _209  and  _210
REMARK   89  A    between atoms: _210  and  _211
REMARK   90  A    between atoms: _220  and  _222
REMARK   91  A    between atoms: _222  and  _223
REMARK   92  A    between atoms: _222  and  _225
REMARK   93  A    between atoms: _225  and  _226
REMARK   94  A    between atoms: _229  and  _231
REMARK   95  A    between atoms: _231  and  _232
REMARK   96  A    between atoms: _231  and  _234
REMARK   97  A    between atoms: _234  and  _235
REMARK   98  A    between atoms: _238  and  _240
REMARK   99  A    between atoms: _240  and  _241
REMARK  100  A    between atoms: _240  and  _243
REMARK  101  A    between atoms: _243  and  _244
REMARK  102  A    between atoms: _244  and  _245
REMARK  103  A    between atoms: _245  and  _246
REMARK  104  A    between atoms: _246  and  _247
REMARK  105  A    between atoms: _251  and  _253
REMARK  106  A    between atoms: _253  and  _254
REMARK  107  A    between atoms: _253  and  _256
REMARK  108  A    between atoms: _256  and  _257
REMARK  109  A    between atoms: _257  and  _258
REMARK  110  A    between atoms: _260  and  _262
REMARK  111  A    between atoms: _262  and  _263
REMARK  112  A    between atoms: _262  and  _265
REMARK  113  A    between atoms: _268  and  _270
REMARK  114  A    between atoms: _270  and  _271
REMARK  115  A    between atoms: _270  and  _273
REMARK  116  A    between atoms: _273  and  _274
REMARK  117  A    between atoms: _277  and  _279
REMARK  118  A    between atoms: _279  and  _280
REMARK  119  A    between atoms: _282  and  _284
REMARK  120  A    between atoms: _284  and  _285
REMARK  121  A    between atoms: _284  and  _287
REMARK  122  A    between atoms: _287  and  _288
REMARK  123  A    between atoms: _291  and  _293
REMARK  124  A    between atoms: _293  and  _294
REMARK  125  A    between atoms: _293  and  _296
REMARK  126  A    between atoms: _296  and  _297
REMARK  127  A    between atoms: _300  and  _302
REMARK  128  A    between atoms: _302  and  _303
REMARK  129  A    between atoms: _302  and  _305
REMARK  130  A    between atoms: _305  and  _306
REMARK  131  A    between atoms: _309  and  _311
REMARK  132  A    between atoms: _311  and  _312
REMARK  133  A    between atoms: _311  and  _314
REMARK  134  A    between atoms: _314  and  _315
REMARK  135  A    between atoms: _320  and  _321
REMARK  136  A    between atoms: _323  and  _325
REMARK  137  A    between atoms: _325  and  _326
REMARK  138  A    between atoms: _325  and  _328
REMARK  139  A    between atoms: _328  and  _329
REMARK  140  A    between atoms: _332  and  _334
REMARK  141  A    between atoms: _334  and  _335
REMARK  142  A    between atoms: _334  and  _337
REMARK  143  A    between atoms: _340  and  _342
REMARK  144  A    between atoms: _342  and  _343
REMARK  145  A    between atoms: _342  and  _345
REMARK  146  A    between atoms: _345  and  _346
REMARK  147  A    between atoms: _349  and  _351
REMARK  148  A    between atoms: _351  and  _352
REMARK  149  A    between atoms: _351  and  _354
REMARK  150  A    between atoms: _354  and  _355
REMARK  151  A    between atoms: _360  and  _362
REMARK  152  A    between atoms: _362  and  _363
REMARK  153  A    between atoms: _362  and  _365
REMARK  154  A    between atoms: _365  and  _366
REMARK  155  A    between atoms: _369  and  _371
REMARK  156  A    between atoms: _371  and  _372
REMARK  157  A    between atoms: _371  and  _374
REMARK  158  A    between atoms: _374  and  _375
REMARK  159  A    between atoms: _375  and  _376
REMARK  160  A    between atoms: _378  and  _380
REMARK  161  A    between atoms: _380  and  _381
REMARK  162  A    between atoms: _383  and  _385
REMARK  163  A    between atoms: _385  and  _386
REMARK  164  A    between atoms: _389  and  _391
REMARK  165  A    between atoms: _391  and  _392
REMARK  166  A    between atoms: _391  and  _394
REMARK  167  A    between atoms: _394  and  _395
REMARK  168  A    between atoms: _398  and  _400
REMARK  169  A    between atoms: _400  and  _401
REMARK  170  A    between atoms: _400  and  _403
REMARK  171  A    between atoms: _403  and  _404
REMARK  172  A    between atoms: _407  and  _409
REMARK  173  A    between atoms: _409  and  _410
REMARK  174  A    between atoms: _409  and  _412
REMARK  175  A    between atoms: _412  and  _413
REMARK  176  A    between atoms: _418  and  _420
REMARK  177  A    between atoms: _420  and  _421
REMARK  178  A    between atoms: _420  and  _423
REMARK  179  A    between atoms: _423  and  _424
REMARK  180  A    between atoms: _429  and  _431
REMARK  181  A    between atoms: _431  and  _432
REMARK  182  A    between atoms: _431  and  _434
REMARK  183  A    between atoms: _434  and  _435
REMARK  184  A    between atoms: _438  and  _440
REMARK  185  A    between atoms: _440  and  _441
REMARK  186  A    between atoms: _440  and  _443
REMARK  187  A    between atoms: _443  and  _444
REMARK  188  A    between atoms: _447  and  _449
REMARK  189  A    between atoms: _449  and  _450
REMARK  190  A    between atoms: _449  and  _452
REMARK  191  A    between atoms: _452  and  _453
REMARK  192  A    between atoms: _459  and  _460
REMARK  193  A    between atoms: _465  and  _467
REMARK  194  A    between atoms: _467  and  _468
REMARK  195  A    between atoms: _467  and  _470
REMARK  196  A    between atoms: _470  and  _471
REMARK  197  A    between atoms: _473  and  _475
REMARK  198  A    between atoms: _475  and  _476
REMARK  199  A    between atoms: _475  and  _478
REMARK  200  A    between atoms: _478  and  _479
REMARK  201  A    between atoms: _484  and  _486
REMARK  202  A    between atoms: _486  and  _487
REMARK  203  A    between atoms: _486  and  _489
REMARK  204  A    between atoms: _489  and  _490
REMARK  205  A    between atoms: _493  and  _495
REMARK  206  A    between atoms: _495  and  _496
REMARK  207  A    between atoms: _499  and  _501
REMARK  208  A    between atoms: _501  and  _502
REMARK  209  A    between atoms: _501  and  _504
REMARK  210  A    between atoms: _507  and  _509
REMARK  211  A    between atoms: _509  and  _510
REMARK  212  A    between atoms: _509  and  _512
REMARK  213  A    between atoms: _512  and  _513
REMARK  214  A    between atoms: _518  and  _520
REMARK  215  A    between atoms: _520  and  _521
REMARK  216  A    between atoms: _520  and  _523
REMARK  217  A    between atoms: _523  and  _524
REMARK  218  A    between atoms: _524  and  _525
REMARK  219  A    between atoms: _525  and  _526
REMARK  220  A    between atoms: _526  and  _527
REMARK  221  A    between atoms: _531  and  _533
REMARK  222  A    between atoms: _533  and  _534
REMARK  223  A    between atoms: _533  and  _536
REMARK  224  A    between atoms: _536  and  _537
REMARK  225  A    between atoms: _540  and  _542
REMARK  226  A    between atoms: _542  and  _543
REMARK  227  A    between atoms: _542  and  _545
REMARK  228  A    between atoms: _545  and  _546
REMARK  229  A    between atoms: _549  and  _551
REMARK  230  A    between atoms: _551  and  _552
REMARK  231  A    between atoms: _551  and  _554
REMARK  232  A    between atoms: _554  and  _555
REMARK  233  A    between atoms: _558  and  _560
REMARK  234  A    between atoms: _560  and  _561
REMARK  235  A    between atoms: _560  and  _563
REMARK  236  A    between atoms: _563  and  _564
REMARK  237  A    between atoms: _570  and  _572
REMARK  238  A    between atoms: _572  and  _573
REMARK  239  A    between atoms: _575  and  _577
REMARK  240  A    between atoms: _577  and  _578
REMARK  241  A    between atoms: _577  and  _580
REMARK  242  A    between atoms: _580  and  _581
REMARK  243  A    between atoms: _584  and  _586
REMARK  244  A    between atoms: _586  and  _587
REMARK  245  A    between atoms: _592  and  _593
REMARK  246  A    between atoms: _592  and  _595
REMARK  247  A    between atoms: _595  and  _596
REMARK  248  A    between atoms: _596  and  _597
REMARK  249  A    between atoms: _597  and  _598
REMARK                            x       y       z     vdW  Elec       q    Type
REMARK                         _______ _______ _______ _____ _____    ______ ____
ROOT
ATOM      1  O   HOH     1      46.176  28.111  26.250  0.00  0.00    +0.000 OA
ENDROOT
TORSDOF 0
